MK1;23474_20669(2qbr)_23475_23467_23466_MK2
  xed2sdf           3D
 
 32 33  0  0  0  0  0  0  0  0999 V2000
   39.2344   17.6631   12.7847 O   0  5  0  0  0  0  0  0  0  0  0  0
   40.3521   17.1022   12.7361 C   0  0  0  0  0  0  0  0  0  0  0  0
   41.1779   17.2188   11.8039 O   0  0  0  0  0  0  0  0  0  0  0  0
   40.7693   16.2193   13.9145 C   0  0  0  0  0  0  0  0  0  0  0  0
   42.0927   15.7292   13.7433 O   0  0  0  0  0  0  0  0  0  0  0  0
   42.5144   14.9212   14.7395 C   0  0  0  0  0  0  0  0  0  0  0  0
   42.1857   13.5746   14.8668 C   0  0  0  0  0  0  0  0  0  0  0  0
   41.2068   12.6502   13.5170 Br  0  0  0  0  0  0  0  0  0  0  0  0
   42.6245   12.9340   16.0147 C   0  0  0  0  0  0  0  0  0  0  0  0
   42.3443   11.5877   16.4784 C   0  0  0  0  0  0  0  0  0  0  0  0
   43.3652   10.7568   16.9469 C   0  0  0  0  0  0  0  0  0  0  0  0
   43.0859    9.4573   17.3660 C   0  0  0  0  0  0  0  0  0  0  0  0
   41.7792    8.9724   17.3119 C   0  0  0  0  0  0  0  0  0  0  0  0
   40.7402    9.7888   16.8449 C   0  0  0  0  0  0  0  0  0  0  0  0
   39.3981    9.3767   16.7741 N   0  0  0  0  0  0  0  0  0  0  0  0
   38.9977    7.9742   16.7120 C   0  0  0  0  0  0  0  0  0  0  0  0
   41.0348   11.0941   16.4477 C   0  0  0  0  0  0  0  0  0  0  0  0
   43.6360   14.0254   16.9149 S   0  0  0  0  0  0  0  0  0  0  0  0
   43.3652   15.3253   15.7665 C   0  0  0  0  0  0  0  0  0  0  0  0
   44.0485   16.6109   16.0384 C   0  0  0  0  0  0  0  0  0  0  0  0
   43.8749   17.5611   15.2448 O   0  5  0  0  0  0  0  0  0  0  0  0
   44.7784   16.7152   17.0498 O   0  0  0  0  0  0  0  0  0  0  0  0
   40.7112   16.7969   14.8381 H   0  0  0  0  0  0  0  0  0  0  0  0
   40.0553   15.3978   13.9949 H   0  0  0  0  0  0  0  0  0  0  0  0
   44.3837   11.1152   16.9828 H   0  0  0  0  0  0  0  0  0  0  0  0
   43.8827    8.8262   17.7310 H   0  0  0  0  0  0  0  0  0  0  0  0
   41.5909    7.9604   17.6367 H   0  0  0  0  0  0  0  0  0  0  0  0
   38.6573   10.0627   16.8096 H   0  0  0  0  0  0  0  0  0  0  0  0
   39.6610    7.3812   17.3429 H   0  0  0  0  0  0  0  0  0  0  0  0
   37.9898    7.8712   17.1160 H   0  0  0  0  0  0  0  0  0  0  0  0
   40.2334   11.7381   16.1154 H   0  0  0  0  0  0  0  0  0  0  0  0
   39.0357    7.5788   15.5797 H   0  0  0  0  0  0  0  0  0  0  0  0
  2  1  1  0
  3  2  2  0
  4  2  1  0
  5  4  1  0
  6  5  1  0
  7  6  1  0
  8  7  1  0
  9  7  2  0
 10  9  1  0
 11 10  2  0
 12 11  1  0
 13 12  2  0
 14 13  1  0
 15 14  1  0
 16 15  1  0
 17 10  1  0
 17 14  2  0
 18  9  1  0
 19  6  2  0
 19 18  1  0
 20 19  1  0
 21 20  1  0
 22 20  2  0
 16 32  1  0
 23  4  1  0
 24  4  1  0
 25 11  1  0
 26 12  1  0
 27 13  1  0
 28 15  1  0
 29 16  1  0
 30 16  1  0
 31 17  1  0
M  CHG  2   1  -1  21  -1
M  END
>  <ptp1b_ 23469 Relative Activity>
1.2

>  <ptp1b_ 23469 Relative Activity Error>
1.3

>  <Total Formal Charge>
-2

>  <Favorite_cresset>
false

>  <MW_cresset>
384.2

>  <#Atoms_cresset>
22

>  <SlogP_cresset>
3.5

>  <TPSA_cresset>
101.5

>  <Flexibility_cresset>
3

>  <Rof5_cresset>
0

>  <Confs_cresset>
0

>  <Poses_cresset>
0

>  <_cresset_fieldpoints2>
 2
    -5      40.328033      18.387386      10.618790    -12.1731
    -5      39.341831      18.584366      11.109982    -11.8243
    -5      45.013428      18.779041      16.185795    -13.1503
    -5      43.329876      17.616398      13.410449    -13.2907
    -5      42.960712      16.538950      11.959511    -14.0603
    -5      42.357635       9.384830      14.241592     -5.1396
    -5      41.709541      11.132833      19.565231     -4.5430
    -5      39.488224       9.417231      19.234331     -3.9042
    -5      45.472824      15.765543      18.560078     -9.6863
    -6      39.392864      14.218894      15.913334      5.5265
    -6      37.962425      11.800261      16.405903      9.6357
    -6      41.374031       5.937691      18.096222      2.5350
    -7      38.865852      10.072515      14.084253     -2.3644
    -7      42.175827      15.029148      11.133684     -2.2553
    -7      39.602028      18.772038      10.448767     -0.8217
    -7      39.462585      14.222269      16.439575     -2.9376
    -7      41.916016      12.630637      19.518417     -2.1794
    -7      46.680962      15.090958      16.503708     -1.5520
    -7      38.985855       9.624496      19.572411     -1.7001
    -7      42.538193       9.431479      13.829699     -2.6118
    -7      45.359844      12.337021      14.457543     -2.4198
    -7      43.440056      17.899967      12.926159     -2.2199
    -7      42.963566      16.542477      18.892628     -1.5485
    -8      41.820908      12.763363      14.782324      5.5403
    -8      41.841179      12.308802      15.637988      5.4999
    -8      42.083870      10.293028      16.893810      6.9360
    -8      42.941284      14.105577      15.810136      7.0476
    -8      40.137604      16.352633      13.991778      2.5191
    -8      38.834236       7.171572      16.652596      2.5445

$$$$
MK2;23468_23471_23466_MK1
  xed2sdf           3D
 
 31 32  0  0  0  0  0  0  0  0999 V2000
   39.0108    7.6228   15.8168 C   0  0  0  0  0  0  0  0  0  0  0  0
   39.7628    6.6642   15.9917 O   0  0  0  0  0  0  0  0  0  0  0  0
   39.3847    8.9129   15.9014 N   0  0  0  0  0  0  0  0  0  0  0  0
   40.6707    9.4518   16.1789 C   0  0  0  0  0  0  0  0  0  0  0  0
   41.6984    8.7040   16.7854 C   0  0  0  0  0  0  0  0  0  0  0  0
   42.9339    9.3143   17.0711 C   0  0  0  0  0  0  0  0  0  0  0  0
   43.1409   10.6700   16.7517 C   0  0  0  0  0  0  0  0  0  0  0  0
   42.1184   11.4321   16.1450 C   0  0  0  0  0  0  0  0  0  0  0  0
   42.3323   12.8382   15.8153 C   0  0  0  0  0  0  0  0  0  0  0  0
   43.1854   13.8564   16.9461 S   0  0  0  0  0  0  0  0  0  0  0  0
   43.0171   15.2586   15.9045 C   0  0  0  0  0  0  0  0  0  0  0  0
   43.6040   16.5277   16.3926 C   0  0  0  0  0  0  0  0  0  0  0  0
   43.5028   17.5484   15.6779 O   0  5  0  0  0  0  0  0  0  0  0  0
   44.1829   16.5487   17.5021 O   0  0  0  0  0  0  0  0  0  0  0  0
   42.3335   14.9436   14.7511 C   0  0  0  0  0  0  0  0  0  0  0  0
   42.0633   15.8258   13.7651 O   0  0  0  0  0  0  0  0  0  0  0  0
   40.9041   16.6163   13.9937 C   0  0  0  0  0  0  0  0  0  0  0  0
   40.4216   17.2724   12.6980 C   0  0  0  0  0  0  0  0  0  0  0  0
   41.2809   17.6281   11.8606 O   0  5  0  0  0  0  0  0  0  0  0  0
   39.1845   17.3897   12.5564 O   0  0  0  0  0  0  0  0  0  0  0  0
   41.9618   13.5670   14.7145 C   0  0  0  0  0  0  0  0  0  0  0  0
   40.9941   12.8290   13.2469 Br  0  0  0  0  0  0  0  0  0  0  0  0
   40.8827   10.8086   15.8614 C   0  0  0  0  0  0  0  0  0  0  0  0
   38.6702    9.5921   15.6841 H   0  0  0  0  0  0  0  0  0  0  0  0
   41.5610    7.6677   17.0527 H   0  0  0  0  0  0  0  0  0  0  0  0
   43.7202    8.7433   17.5419 H   0  0  0  0  0  0  0  0  0  0  0  0
   44.0905   11.1286   16.9871 H   0  0  0  0  0  0  0  0  0  0  0  0
   40.0888   16.0102   14.3929 H   0  0  0  0  0  0  0  0  0  0  0  0
   41.1295   17.3893   14.7294 H   0  0  0  0  0  0  0  0  0  0  0  0
   40.0923   11.3709   15.3855 H   0  0  0  0  0  0  0  0  0  0  0  0
   38.0586    7.3955   15.5962 H   0  0  0  0  0  0  0  0  0  0  0  0
  2  1  2  0
  3  1  1  0
  4  3  1  0
  5  4  2  0
  6  5  1  0
  7  6  2  0
  8  7  1  0
  9  8  1  0
 10  9  1  0
 11 10  1  0
 12 11  1  0
 13 12  1  0
 14 12  2  0
 15 11  2  0
 16 15  1  0
 17 16  1  0
 18 17  1  0
 19 18  1  0
 20 18  2  0
 21  9  2  0
 21 15  1  0
 22 21  1  0
 23  4  1  0
 23  8  2  0
  1 31  1  0
 24  3  1  0
 25  5  1  0
 26  6  1  0
 27  7  1  0
 28 17  1  0
 29 17  1  0
 30 23  1  0
M  CHG  2  13  -1  19  -1
M  END
>  <ptp1b_ 23469 Relative Activity>
0.9

>  <ptp1b_ 23469 Relative Activity Error>
1.4

>  <Total Formal Charge>
-2

>  <Favorite_cresset>
false

>  <MW_cresset>
398.2

>  <#Atoms_cresset>
23

>  <SlogP_cresset>
3

>  <TPSA_cresset>
118.6

>  <Flexibility_cresset>
3

>  <Rof5_cresset>
0

>  <Confs_cresset>
0

>  <Poses_cresset>
0

>  <_cresset_fieldpoints2>
 2
    -5      39.882690       4.850692      15.965590    -14.4082
    -5      44.703987      15.490548      19.009995     -9.4251
    -5      41.280174      10.825397      19.200817     -3.4762
    -5      44.650566      18.403728      17.430477    -12.7478
    -5      43.093987      17.210625      12.311461    -13.3832
    -5      43.508476      17.780844      13.777635    -11.0501
    -5      40.243889      18.338623      10.469770    -11.9918
    -5      39.197868      18.199015      10.821485    -11.6852
    -5      42.784317       8.884992      13.953726     -4.3284
    -6      36.852249       9.746220      15.104733     10.8245
    -6      37.913918      11.224802      15.030551     10.9081
    -6      45.802071       9.744008      18.033972      1.9341
    -6      39.392990      14.658775      16.018528      4.6160
    -7      39.639236       6.871340      18.611172     -1.5985
    -7      38.345787       9.255239      18.429306     -1.6962
    -7      43.488228       6.002186      17.743961     -1.0018
    -7      41.103523      12.240271      19.116833     -2.1961
    -7      39.372818       9.602200      13.128077     -2.2710
    -7      42.978706       9.885420      13.349174     -2.5499
    -7      45.329636      12.580374      14.689064     -2.3793
    -7      43.772324      17.893242      13.319262     -2.1554
    -7      46.205597      15.048836      17.091049     -1.5566
    -7      42.245144      15.339206      11.126177     -2.2107
    -7      38.115852      14.579229      13.870615     -1.6822
    -7      38.336578      15.001497      12.681524     -1.8589
    -7      39.195053      14.024050      16.245914     -2.7397
    -8      41.932404      10.086566      16.468281      6.8307
    -8      37.757484       7.632286      15.516268      1.2610
    -8      42.625229      14.030127      15.778975      7.0348
    -8      41.569412      12.781349      14.519594      5.4805
    -8      41.622311      12.192257      15.326864      5.4383
    -8      40.421204      17.150085      14.147514      2.5460

$$$$
MK3
  xed2sdf           3D
 
 44 46  0  0  0  0  0  0  0  0999 V2000
   37.7465    5.6423   13.5950 N   0  0  0  0  0  0  0  0  0  0  0  0
   37.2459    5.9851   14.9369 C   0  0  0  0  0  0  0  0  0  0  0  0
   37.5470    7.4565   15.2816 C   0  0  0  0  0  0  0  0  0  0  0  0
   39.0675    7.7035   15.2237 C   0  0  0  0  0  0  0  0  0  0  0  0
   39.2825    9.1457   15.4298 N   0  0  0  0  0  0  0  0  0  0  0  0
   40.4748    9.6611   15.9605 C   0  0  0  0  0  0  0  0  0  0  0  0
   41.2720    8.9360   16.8411 C   0  0  0  0  0  0  0  0  0  0  0  0
   42.4187    9.4999   17.3635 C   0  0  0  0  0  0  0  0  0  0  0  0
   42.7793   10.7771   17.0278 C   0  0  0  0  0  0  0  0  0  0  0  0
   42.0011   11.5386   16.1455 C   0  0  0  0  0  0  0  0  0  0  0  0
   42.3441   12.8737   15.8132 C   0  0  0  0  0  0  0  0  0  0  0  0
   43.7169   13.6675   16.6399 S   0  0  0  0  0  0  0  0  0  0  0  0
   43.3452   15.1508   15.7214 C   0  0  0  0  0  0  0  0  0  0  0  0
   44.1933   16.2570   16.0301 C   0  0  0  0  0  0  0  0  0  0  0  0
   45.0801   16.0732   16.9087 O   0  5  0  0  0  0  0  0  0  0  0  0
   43.9784   17.3285   15.3997 O   0  0  0  0  0  0  0  0  0  0  0  0
   42.2805   15.0038   14.8520 C   0  0  0  0  0  0  0  0  0  0  0  0
   41.8762   16.0090   14.0563 O   0  0  0  0  0  0  0  0  0  0  0  0
   40.4602   16.2143   13.8731 C   0  0  0  0  0  0  0  0  0  0  0  0
   40.2225   17.2586   12.8111 C   0  0  0  0  0  0  0  0  0  0  0  0
   40.9552   17.1950   11.7630 O   0  5  0  0  0  0  0  0  0  0  0  0
   39.3086   18.1260   13.0420 O   0  0  0  0  0  0  0  0  0  0  0  0
   41.7310   13.7194   14.9031 C   0  0  0  0  0  0  0  0  0  0  0  0
   40.2887   13.1719   13.8103 Br  0  0  0  0  0  0  0  0  0  0  0  0
   40.8525   10.9388   15.6240 C   0  0  0  0  0  0  0  0  0  0  0  0
   39.5947    7.2890   13.8359 C   0  0  0  0  0  0  0  0  0  0  0  0
   39.2070    5.8251   13.5474 C   0  0  0  0  0  0  0  0  0  0  0  0
   37.4508    4.7088   13.2846 H   0  0  0  0  0  0  0  0  0  0  0  0
   36.0571    5.8225   14.9637 H   0  0  0  0  0  0  0  0  0  0  0  0
   37.7571    5.2730   15.7559 H   0  0  0  0  0  0  0  0  0  0  0  0
   37.1445    7.7046   16.3845 H   0  0  0  0  0  0  0  0  0  0  0  0
   36.9930    8.1630   14.4854 H   0  0  0  0  0  0  0  0  0  0  0  0
   39.5685    7.0139   16.0658 H   0  0  0  0  0  0  0  0  0  0  0  0
   38.8424    9.6783   14.8821 H   0  0  0  0  0  0  0  0  0  0  0  0
   41.0177    8.0083   17.1066 H   0  0  0  0  0  0  0  0  0  0  0  0
   42.9869    8.9740   17.9963 H   0  0  0  0  0  0  0  0  0  0  0  0
   43.6091   11.1735   17.4202 H   0  0  0  0  0  0  0  0  0  0  0  0
   39.9721   16.5772   14.9072 H   0  0  0  0  0  0  0  0  0  0  0  0
   39.9224   15.2040   13.5163 H   0  0  0  0  0  0  0  0  0  0  0  0
   40.2783   11.4624   14.9949 H   0  0  0  0  0  0  0  0  0  0  0  0
   40.7885    7.4067   13.8069 H   0  0  0  0  0  0  0  0  0  0  0  0
   39.1048    8.0012   13.0036 H   0  0  0  0  0  0  0  0  0  0  0  0
   39.5997    5.5331   12.4516 H   0  0  0  0  0  0  0  0  0  0  0  0
   39.7299    5.1078   14.3551 H   0  0  0  0  0  0  0  0  0  0  0  0
  2  1  1  0
  3  2  1  0
  4  3  1  0
  5  4  1  0
  6  5  1  0
  7  6  2  0
  8  7  1  0
  9  8  2  0
 10  9  1  0
 11 10  1  0
 12 11  1  0
 13 12  1  0
 14 13  1  0
 15 14  1  0
 16 14  2  0
 17 13  2  0
 18 17  1  0
 19 18  1  0
 20 19  1  0
 21 20  1  0
 22 20  2  0
 23 11  2  0
 23 17  1  0
 24 23  1  0
 25  6  1  0
 25 10  2  0
 26  4  1  0
 27  1  1  0
 27 26  1  0
  1 28  1  0
  2 29  1  0
  2 30  1  0
  3 31  1  0
  3 32  1  0
  4 33  1  0
  5 34  1  0
  7 35  1  0
  8 36  1  0
  9 37  1  0
 19 38  1  0
 19 39  1  0
 25 40  1  0
 26 41  1  0
 26 42  1  0
 27 43  1  0
 27 44  1  0
M  CHG  2  15  -1  21  -1
M  END
>  <ptp1b_ 23469 Relative Activity>
-0.9

>  <ptp1b_ 23469 Relative Activity Error>
1.3

>  <Total Formal Charge>
-2

>  <Favorite_cresset>
false

>  <MW_cresset>
453.3

>  <#Atoms_cresset>
27

>  <SlogP_cresset>
3.6

>  <TPSA_cresset>
113.6

>  <Flexibility_cresset>
5

>  <Rof5_cresset>
0

>  <Confs_cresset>
0

>  <Poses_cresset>
0

$$$$
