23469
  xed2sdf           3D
 
 41 43  0  0  0  0  0  0  0  0999 V2000
   39.1680   17.5120   12.6949 O   0  5  0  0  0  0  0  0  0  0  0  0
   40.3245   17.0339   12.6933 C   0  0  0  0  0  0  0  0  0  0  0  0
   41.2000   17.2665   11.8308 O   0  0  0  0  0  0  0  0  0  0  0  0
   40.7257   16.1090   13.8445 C   0  0  0  0  0  0  0  0  0  0  0  0
   42.0919   15.7294   13.7437 O   0  0  0  0  0  0  0  0  0  0  0  0
   42.5145   14.9212   14.7395 C   0  0  0  0  0  0  0  0  0  0  0  0
   42.1856   13.5746   14.8668 C   0  0  0  0  0  0  0  0  0  0  0  0
   41.2053   12.6509   13.5174 Br  0  0  0  0  0  0  0  0  0  0  0  0
   42.6245   12.9340   16.0147 C   0  0  0  0  0  0  0  0  0  0  0  0
   42.3443   11.5877   16.4784 C   0  0  0  0  0  0  0  0  0  0  0  0
   43.3652   10.7569   16.9470 C   0  0  0  0  0  0  0  0  0  0  0  0
   43.0859    9.4573   17.3660 C   0  0  0  0  0  0  0  0  0  0  0  0
   41.7792    8.9724   17.3118 C   0  0  0  0  0  0  0  0  0  0  0  0
   40.7401    9.7888   16.8448 C   0  0  0  0  0  0  0  0  0  0  0  0
   39.3981    9.3768   16.7741 N   0  0  0  0  0  0  0  0  0  0  0  0
   38.9977    7.9742   16.7120 C   0  0  0  0  0  0  0  0  0  0  0  0
   38.6112    7.3065   17.6711 O   0  0  0  0  0  0  0  0  0  0  0  0
   39.0447    7.4076   15.2989 C   0  0  0  0  0  0  0  0  0  0  0  0
   40.2643    7.0598   14.7072 C   0  0  0  0  0  0  0  0  0  0  0  0
   40.2939    6.5235   13.4197 C   0  0  0  0  0  0  0  0  0  0  0  0
   39.1061    6.3134   12.7236 C   0  0  0  0  0  0  0  0  0  0  0  0
   37.8875    6.6562   13.3069 C   0  0  0  0  0  0  0  0  0  0  0  0
   37.8553    7.2050   14.5894 C   0  0  0  0  0  0  0  0  0  0  0  0
   41.0346   11.0942   16.4477 C   0  0  0  0  0  0  0  0  0  0  0  0
   43.6360   14.0254   16.9149 S   0  0  0  0  0  0  0  0  0  0  0  0
   43.3652   15.3253   15.7666 C   0  0  0  0  0  0  0  0  0  0  0  0
   44.0484   16.6109   16.0386 C   0  0  0  0  0  0  0  0  0  0  0  0
   43.8753   17.5608   15.2444 O   0  5  0  0  0  0  0  0  0  0  0  0
   44.7768   16.7159   17.0509 O   0  0  0  0  0  0  0  0  0  0  0  0
   40.5589   16.6193   14.7942 H   0  0  0  0  0  0  0  0  0  0  0  0
   40.0731   15.2344   13.8224 H   0  0  0  0  0  0  0  0  0  0  0  0
   44.3829   11.1171   16.9883 H   0  0  0  0  0  0  0  0  0  0  0  0
   43.8821    8.8280   17.7354 H   0  0  0  0  0  0  0  0  0  0  0  0
   41.5946    7.9649   17.6501 H   0  0  0  0  0  0  0  0  0  0  0  0
   38.7229   10.1212   16.6814 H   0  0  0  0  0  0  0  0  0  0  0  0
   41.1959    7.1942   15.2378 H   0  0  0  0  0  0  0  0  0  0  0  0
   41.2391    6.2673   12.9638 H   0  0  0  0  0  0  0  0  0  0  0  0
   39.1282    5.8806   11.7343 H   0  0  0  0  0  0  0  0  0  0  0  0
   36.9663    6.4952   12.7665 H   0  0  0  0  0  0  0  0  0  0  0  0
   36.9054    7.4761   15.0276 H   0  0  0  0  0  0  0  0  0  0  0  0
   40.2344   11.7364   16.1095 H   0  0  0  0  0  0  0  0  0  0  0  0
  1  2  1  0
  2  3  2  0
  2  4  1  0
  4  5  1  0
  5  6  1  0
  6  7  1  0
  6 26  2  0
  7  8  1  0
  7  9  2  0
  9 10  1  0
  9 25  1  0
 10 11  2  0
 10 24  1  0
 11 12  1  0
 12 13  2  0
 13 14  1  0
 14 15  1  0
 14 24  2  0
 15 16  1  0
 16 17  2  0
 16 18  1  0
 18 19  2  0
 18 23  1  0
 19 20  1  0
 20 21  2  0
 21 22  1  0
 22 23  2  0
 25 26  1  0
 26 27  1  0
 27 28  1  0
 27 29  2  0
  4 30  1  0
  4 31  1  0
 11 32  1  0
 12 33  1  0
 13 34  1  0
 15 35  1  0
 19 36  1  0
 20 37  1  0
 21 38  1  0
 22 39  1  0
 23 40  1  0
 24 41  1  0
M  CHG  2   1  -1  28  -1
M  END
>  <i_m_stars>
2

>  <r_user_dG.exp>
-7.72301857947764

>  <ptp1b_ 23469 Relative Activity>
0

>  <ptp1b_ 23469 Relative Activity Error>
1.7

>  <Total Formal Charge>
-2

>  <Favorite_cresset>
false

>  <MW_cresset>
474.3

>  <#Atoms_cresset>
29

>  <SlogP_cresset>
4.7

>  <TPSA_cresset>
118.6

>  <Flexibility_cresset>
3.3

>  <Rof5_cresset>
0

>  <Confs_cresset>
0

>  <Poses_cresset>
0

$$$$
23472
  xed2sdf           3D
 
 42 44  0  0  0  0  0  0  0  0999 V2000
   41.3359   17.7345   12.0655 O   0  5  0  0  0  0  0  0  0  0  0  0
   40.5033   17.5778   12.9865 C   0  0  0  0  0  0  0  0  0  0  0  0
   39.4360   18.2181   13.1106 O   0  0  0  0  0  0  0  0  0  0  0  0
   40.8111   16.5423   14.0704 C   0  0  0  0  0  0  0  0  0  0  0  0
   42.0187   15.8482   13.7866 O   0  0  0  0  0  0  0  0  0  0  0  0
   42.3640   14.9373   14.7216 C   0  0  0  0  0  0  0  0  0  0  0  0
   41.8832   13.5947   14.7447 C   0  0  0  0  0  0  0  0  0  0  0  0
   40.6955   12.9322   13.4088 Br  0  0  0  0  0  0  0  0  0  0  0  0
   42.3216   12.8413   15.8032 C   0  0  0  0  0  0  0  0  0  0  0  0
   42.0378   11.4574   16.1718 C   0  0  0  0  0  0  0  0  0  0  0  0
   43.0880   10.5560   16.4532 C   0  0  0  0  0  0  0  0  0  0  0  0
   42.8137    9.2218   16.8103 C   0  0  0  0  0  0  0  0  0  0  0  0
   41.4823    8.7730   16.8894 C   0  0  0  0  0  0  0  0  0  0  0  0
   40.4256    9.6609   16.6100 C   0  0  0  0  0  0  0  0  0  0  0  0
   39.0856    9.2639   16.6793 N   0  0  0  0  0  0  0  0  0  0  0  0
   38.4178    7.6851   16.9540 S   0  0  0  0  0  0  0  0  0  0  0  0
   39.0080    7.1971   18.2103 O   0  0  0  0  0  0  0  0  0  0  0  0
   36.9627    7.8421   16.8089 O   0  0  0  0  0  0  0  0  0  0  0  0
   39.0362    6.7270   15.5748 C   0  0  0  0  0  0  0  0  0  0  0  0
   38.2851    6.6759   14.3838 C   0  0  0  0  0  0  0  0  0  0  0  0
   38.7667    5.9320   13.2887 C   0  0  0  0  0  0  0  0  0  0  0  0
   39.9924    5.2434   13.3877 C   0  0  0  0  0  0  0  0  0  0  0  0
   40.4534    4.5292   12.3340 F   0  0  0  0  0  0  0  0  0  0  0  0
   40.7391    5.2967   14.5820 C   0  0  0  0  0  0  0  0  0  0  0  0
   40.2622    6.0390   15.6804 C   0  0  0  0  0  0  0  0  0  0  0  0
   40.7049   10.9955   16.2530 C   0  0  0  0  0  0  0  0  0  0  0  0
   43.3793   13.7909   16.8146 S   0  0  0  0  0  0  0  0  0  0  0  0
   43.2010   15.1994   15.7834 C   0  0  0  0  0  0  0  0  0  0  0  0
   43.9423   16.4178   16.1828 C   0  0  0  0  0  0  0  0  0  0  0  0
   43.8332   17.4437   15.4767 O   0  5  0  0  0  0  0  0  0  0  0  0
   44.6565   16.3915   17.2104 O   0  0  0  0  0  0  0  0  0  0  0  0
   40.8732   17.0602   15.0292 H   0  0  0  0  0  0  0  0  0  0  0  0
   39.9877   15.8296   14.1346 H   0  0  0  0  0  0  0  0  0  0  0  0
   44.1148   10.8877   16.4044 H   0  0  0  0  0  0  0  0  0  0  0  0
   43.6260    8.5439   17.0270 H   0  0  0  0  0  0  0  0  0  0  0  0
   41.2937    7.7490   17.1714 H   0  0  0  0  0  0  0  0  0  0  0  0
   38.4177    9.9669   16.3987 H   0  0  0  0  0  0  0  0  0  0  0  0
   37.3473    7.2064   14.3086 H   0  0  0  0  0  0  0  0  0  0  0  0
   38.1969    5.8898   12.3721 H   0  0  0  0  0  0  0  0  0  0  0  0
   41.6780    4.7680   14.6546 H   0  0  0  0  0  0  0  0  0  0  0  0
   40.8379    6.0779   16.5932 H   0  0  0  0  0  0  0  0  0  0  0  0
   39.8926   11.6719   16.0292 H   0  0  0  0  0  0  0  0  0  0  0  0
  1  2  1  0
  2  3  2  0
  2  4  1  0
  4  5  1  0
  5  6  1  0
  6  7  1  0
  6 28  2  0
  7  8  1  0
  7  9  2  0
  9 10  1  0
  9 27  1  0
 10 11  2  0
 10 26  1  0
 11 12  1  0
 12 13  2  0
 13 14  1  0
 14 15  1  0
 14 26  2  0
 15 16  1  0
 16 17  2  0
 16 18  2  0
 16 19  1  0
 19 20  2  0
 19 25  1  0
 20 21  1  0
 21 22  2  0
 22 23  1  0
 22 24  1  0
 24 25  2  0
 27 28  1  0
 28 29  1  0
 29 30  1  0
 29 31  2  0
  4 32  1  0
  4 33  1  0
 11 34  1  0
 12 35  1  0
 13 36  1  0
 15 37  1  0
 20 38  1  0
 21 39  1  0
 24 40  1  0
 25 41  1  0
 26 42  1  0
M  CHG  2   1  -1  30  -1
M  END
>  <i_m_stars>
2

>  <r_user_dG.exp>
-8.64628903953511

>  <ptp1b_ 23469 Relative Activity>
-2

>  <ptp1b_ 23469 Relative Activity Error>
2.5

>  <Total Formal Charge>
-2

>  <Favorite_cresset>
false

>  <MW_cresset>
528.3

>  <#Atoms_cresset>
31

>  <SlogP_cresset>
4.6

>  <TPSA_cresset>
135.7

>  <Flexibility_cresset>
4.5

>  <Rof5_cresset>
1

>  <Confs_cresset>
0

>  <Poses_cresset>
0

$$$$
23474
  xed2sdf           3D
 
 48 50  0  0  0  0  0  0  0  0999 V2000
   39.1872   17.7319   12.9711 O   0  5  0  0  0  0  0  0  0  0  0  0
   40.3302   17.2264   12.9065 C   0  0  0  0  0  0  0  0  0  0  0  0
   41.1481   17.4091   11.9779 O   0  0  0  0  0  0  0  0  0  0  0  0
   40.7697   16.2873   14.0319 C   0  0  0  0  0  0  0  0  0  0  0  0
   42.0557   15.7410   13.7696 O   0  0  0  0  0  0  0  0  0  0  0  0
   42.5145   14.9212   14.7395 C   0  0  0  0  0  0  0  0  0  0  0  0
   42.1856   13.5746   14.8668 C   0  0  0  0  0  0  0  0  0  0  0  0
   41.1590   12.6662   13.5413 Br  0  0  0  0  0  0  0  0  0  0  0  0
   42.6245   12.9340   16.0147 C   0  0  0  0  0  0  0  0  0  0  0  0
   42.3443   11.5877   16.4784 C   0  0  0  0  0  0  0  0  0  0  0  0
   43.3652   10.7569   16.9470 C   0  0  0  0  0  0  0  0  0  0  0  0
   43.0859    9.4573   17.3660 C   0  0  0  0  0  0  0  0  0  0  0  0
   41.7792    8.9724   17.3118 C   0  0  0  0  0  0  0  0  0  0  0  0
   40.7401    9.7888   16.8448 C   0  0  0  0  0  0  0  0  0  0  0  0
   39.4485    9.2406   16.7948 N   0  0  0  0  0  0  0  0  0  0  0  0
   39.1815    7.8314   17.0618 C   0  0  0  0  0  0  0  0  0  0  0  0
   39.6686    6.9137   15.9440 C   0  0  0  0  0  0  0  0  0  0  0  0
   41.1881    7.0661   15.7647 C   0  0  0  0  0  0  0  0  0  0  0  0
   41.7017    6.2017   14.6013 C   0  0  0  0  0  0  0  0  0  0  0  0
   40.9516    6.5196   13.2971 C   0  0  0  0  0  0  0  0  0  0  0  0
   39.4321    6.3672   13.4765 C   0  0  0  0  0  0  0  0  0  0  0  0
   38.9186    7.2316   14.6399 C   0  0  0  0  0  0  0  0  0  0  0  0
   41.0347   11.0942   16.4477 C   0  0  0  0  0  0  0  0  0  0  0  0
   43.6360   14.0254   16.9149 S   0  0  0  0  0  0  0  0  0  0  0  0
   43.3652   15.3253   15.7666 C   0  0  0  0  0  0  0  0  0  0  0  0
   44.0486   16.6108   16.0385 C   0  0  0  0  0  0  0  0  0  0  0  0
   43.8781   17.5598   15.2428 O   0  5  0  0  0  0  0  0  0  0  0  0
   44.7767   16.7158   17.0512 O   0  0  0  0  0  0  0  0  0  0  0  0
   40.0442   15.4789   14.1331 H   0  0  0  0  0  0  0  0  0  0  0  0
   40.7670   16.8505   14.9669 H   0  0  0  0  0  0  0  0  0  0  0  0
   44.3826   11.1175   16.9916 H   0  0  0  0  0  0  0  0  0  0  0  0
   43.8816    8.8264   17.7339 H   0  0  0  0  0  0  0  0  0  0  0  0
   41.5760    7.9619   17.6355 H   0  0  0  0  0  0  0  0  0  0  0  0
   38.7190    9.7741   16.3442 H   0  0  0  0  0  0  0  0  0  0  0  0
   38.1330    7.6479   17.2935 H   0  0  0  0  0  0  0  0  0  0  0  0
   39.7226    7.5861   17.9760 H   0  0  0  0  0  0  0  0  0  0  0  0
   39.4374    5.8967   16.2607 H   0  0  0  0  0  0  0  0  0  0  0  0
   41.4318    8.1121   15.5789 H   0  0  0  0  0  0  0  0  0  0  0  0
   41.7008    6.7916   16.6866 H   0  0  0  0  0  0  0  0  0  0  0  0
   42.7712    6.3608   14.4636 H   0  0  0  0  0  0  0  0  0  0  0  0
   41.5784    5.1468   14.8467 H   0  0  0  0  0  0  0  0  0  0  0  0
   41.1828    7.5366   12.9805 H   0  0  0  0  0  0  0  0  0  0  0  0
   41.2996    5.8641   12.4988 H   0  0  0  0  0  0  0  0  0  0  0  0
   38.9194    6.6417   12.5546 H   0  0  0  0  0  0  0  0  0  0  0  0
   39.1885    5.3212   13.6622 H   0  0  0  0  0  0  0  0  0  0  0  0
   37.8491    7.0725   14.7776 H   0  0  0  0  0  0  0  0  0  0  0  0
   39.0419    8.2865   14.3944 H   0  0  0  0  0  0  0  0  0  0  0  0
   40.2540   11.7471   16.0927 H   0  0  0  0  0  0  0  0  0  0  0  0
  1  2  1  0
  2  3  2  0
  2  4  1  0
  4  5  1  0
  5  6  1  0
  6  7  1  0
  6 25  2  0
  7  8  1  0
  7  9  2  0
  9 10  1  0
  9 24  1  0
 10 11  2  0
 10 23  1  0
 11 12  1  0
 12 13  2  0
 13 14  1  0
 14 15  1  0
 14 23  2  0
 15 16  1  0
 16 17  1  0
 17 18  1  0
 17 22  1  0
 18 19  1  0
 19 20  1  0
 20 21  1  0
 21 22  1  0
 24 25  1  0
 25 26  1  0
 26 27  1  0
 26 28  2  0
  4 29  1  0
  4 30  1  0
 11 31  1  0
 12 32  1  0
 13 33  1  0
 15 34  1  0
 16 35  1  0
 16 36  1  0
 17 37  1  0
 18 38  1  0
 18 39  1  0
 19 40  1  0
 19 41  1  0
 20 42  1  0
 20 43  1  0
 21 44  1  0
 21 45  1  0
 22 46  1  0
 22 47  1  0
 23 48  1  0
M  CHG  2   1  -1  27  -1
M  END
>  <i_m_stars>
2

>  <r_user_dG.exp>
-9.11205847715563

>  <ptp1b_ 23469 Relative Activity>
-1.2

>  <ptp1b_ 23469 Relative Activity Error>
1.6

>  <Total Formal Charge>
-2

>  <Favorite_cresset>
false

>  <MW_cresset>
466.3

>  <#Atoms_cresset>
28

>  <SlogP_cresset>
5.4

>  <TPSA_cresset>
101.5

>  <Flexibility_cresset>
6

>  <Rof5_cresset>
1

>  <Confs_cresset>
0

>  <Poses_cresset>
0

$$$$
23480
  xed2sdf           3D
 
 50 52  0  0  0  0  0  0  0  0999 V2000
   35.0074    4.9684   11.3546 C   0  0  0  0  0  0  0  0  0  0  0  0
   35.7355    5.3186   12.5452 O   0  0  0  0  0  0  0  0  0  0  0  0
   37.0867    5.4179   12.4261 C   0  0  0  0  0  0  0  0  0  0  0  0
   37.5915    5.2221   11.3226 O   0  0  0  0  0  0  0  0  0  0  0  0
   37.8083    5.7303   13.5291 N   0  0  0  0  0  0  0  0  0  0  0  0
   37.2137    5.9887   14.8552 C   0  0  0  0  0  0  0  0  0  0  0  0
   37.5488    7.4410   15.2485 C   0  0  0  0  0  0  0  0  0  0  0  0
   39.0753    7.6835   15.2071 C   0  0  0  0  0  0  0  0  0  0  0  0
   39.2794    9.1196   15.4690 N   0  0  0  0  0  0  0  0  0  0  0  0
   40.4848    9.6306   15.9726 C   0  0  0  0  0  0  0  0  0  0  0  0
   41.3039    8.8986   16.8273 C   0  0  0  0  0  0  0  0  0  0  0  0
   42.4611    9.4610   17.3297 C   0  0  0  0  0  0  0  0  0  0  0  0
   42.8131   10.7429   16.9986 C   0  0  0  0  0  0  0  0  0  0  0  0
   42.0163   11.5049   16.1330 C   0  0  0  0  0  0  0  0  0  0  0  0
   42.3522   12.8386   15.7873 C   0  0  0  0  0  0  0  0  0  0  0  0
   43.6796   13.6831   16.6430 S   0  0  0  0  0  0  0  0  0  0  0  0
   43.2903   15.1508   15.7025 C   0  0  0  0  0  0  0  0  0  0  0  0
   44.0643   16.3023   16.0384 C   0  0  0  0  0  0  0  0  0  0  0  0
   44.9404   16.1649   16.9367 O   0  5  0  0  0  0  0  0  0  0  0  0
   43.7972   17.3643   15.4106 O   0  0  0  0  0  0  0  0  0  0  0  0
   42.2761   14.9437   14.7875 C   0  0  0  0  0  0  0  0  0  0  0  0
   41.8395   15.8853   13.9428 O   0  0  0  0  0  0  0  0  0  0  0  0
   40.8571   16.8053   14.4522 C   0  0  0  0  0  0  0  0  0  0  0  0
   40.2559   17.5549   13.2925 C   0  0  0  0  0  0  0  0  0  0  0  0
   41.0160   17.7715   12.2850 O   0  5  0  0  0  0  0  0  0  0  0  0
   39.0272   17.8981   13.4006 O   0  0  0  0  0  0  0  0  0  0  0  0
   41.7572   13.6526   14.8383 C   0  0  0  0  0  0  0  0  0  0  0  0
   40.3615   13.0899   13.6984 Br  0  0  0  0  0  0  0  0  0  0  0  0
   40.8545   10.9097   15.6349 C   0  0  0  0  0  0  0  0  0  0  0  0
   39.6327    7.3264   13.8116 C   0  0  0  0  0  0  0  0  0  0  0  0
   39.2699    5.8733   13.4481 C   0  0  0  0  0  0  0  0  0  0  0  0
   33.8329    4.9184   11.5957 H   0  0  0  0  0  0  0  0  0  0  0  0
   35.2083    5.7944   10.5072 H   0  0  0  0  0  0  0  0  0  0  0  0
   35.3816    3.8977   10.9616 H   0  0  0  0  0  0  0  0  0  0  0  0
   36.0240    5.8395   14.8798 H   0  0  0  0  0  0  0  0  0  0  0  0
   37.7172    5.2471   15.6526 H   0  0  0  0  0  0  0  0  0  0  0  0
   37.1384    7.6653   16.3540 H   0  0  0  0  0  0  0  0  0  0  0  0
   37.0075    8.1762   14.4695 H   0  0  0  0  0  0  0  0  0  0  0  0
   39.5785    6.9759   16.0328 H   0  0  0  0  0  0  0  0  0  0  0  0
   38.8123    9.6686   14.9620 H   0  0  0  0  0  0  0  0  0  0  0  0
   41.0562    7.9675   17.0893 H   0  0  0  0  0  0  0  0  0  0  0  0
   43.0437    8.9297   17.9448 H   0  0  0  0  0  0  0  0  0  0  0  0
   43.6499   11.1393   17.3771 H   0  0  0  0  0  0  0  0  0  0  0  0
   41.3742   17.5684   15.2202 H   0  0  0  0  0  0  0  0  0  0  0  0
   39.9739   16.2111   15.0085 H   0  0  0  0  0  0  0  0  0  0  0  0
   40.2664   11.4373   15.0217 H   0  0  0  0  0  0  0  0  0  0  0  0
   40.8258    7.4573   13.8085 H   0  0  0  0  0  0  0  0  0  0  0  0
   39.1511    8.0656   12.9979 H   0  0  0  0  0  0  0  0  0  0  0  0
   39.6618    5.6247   12.3417 H   0  0  0  0  0  0  0  0  0  0  0  0
   39.7813    5.1277   14.2373 H   0  0  0  0  0  0  0  0  0  0  0  0
  1  2  1  0
  2  3  1  0
  3  4  2  0
  3  5  1  0
  5  6  1  0
  5 31  1  0
  6  7  1  0
  7  8  1  0
  8  9  1  0
  8 30  1  0
  9 10  1  0
 10 11  2  0
 10 29  1  0
 11 12  1  0
 12 13  2  0
 13 14  1  0
 14 15  1  0
 14 29  2  0
 15 16  1  0
 15 27  2  0
 16 17  1  0
 17 18  1  0
 17 21  2  0
 18 19  1  0
 18 20  2  0
 21 22  1  0
 21 27  1  0
 22 23  1  0
 23 24  1  0
 24 25  1  0
 24 26  2  0
 27 28  1  0
 30 31  1  0
  1 32  1  0
  1 33  1  0
  1 34  1  0
  6 35  1  0
  6 36  1  0
  7 37  1  0
  7 38  1  0
  8 39  1  0
  9 40  1  0
 11 41  1  0
 12 42  1  0
 13 43  1  0
 23 44  1  0
 23 45  1  0
 29 46  1  0
 30 47  1  0
 30 48  1  0
 31 49  1  0
 31 50  1  0
M  CHG  2  19  -1  25  -1
M  END
>  <i_m_stars>
2

>  <r_user_dG.exp>
-8.71754822596421

>  <ptp1b_ 23469 Relative Activity>
2.4

>  <ptp1b_ 23469 Relative Activity Error>
5.3

>  <Total Formal Charge>
-2

>  <Favorite_cresset>
false

>  <MW_cresset>
511.3

>  <#Atoms_cresset>
31

>  <SlogP_cresset>
4.1

>  <TPSA_cresset>
131.1

>  <Flexibility_cresset>
5.5

>  <Rof5_cresset>
1

>  <Confs_cresset>
0

>  <Poses_cresset>
0

$$$$
23470
  xed2sdf           3D
 
 42 43  0  0  0  0  0  0  0  0999 V2000
   37.0574    6.0201   15.5715 C   0  0  0  0  0  0  0  0  0  0  0  0
   36.6613    6.9917   16.6944 C   0  0  0  0  0  0  0  0  0  0  0  0
   36.7264    6.3206   18.0727 C   0  0  0  0  0  0  0  0  0  0  0  0
   37.5298    8.1657   16.6845 N   0  0  0  0  0  0  0  0  0  0  0  0
   38.8613    8.1465   16.8451 C   0  0  0  0  0  0  0  0  0  0  0  0
   39.5077    7.1124   17.0110 O   0  0  0  0  0  0  0  0  0  0  0  0
   39.3777    9.3863   16.7836 N   0  0  0  0  0  0  0  0  0  0  0  0
   40.7401    9.7888   16.8448 C   0  0  0  0  0  0  0  0  0  0  0  0
   41.7792    8.9724   17.3118 C   0  0  0  0  0  0  0  0  0  0  0  0
   43.0859    9.4573   17.3660 C   0  0  0  0  0  0  0  0  0  0  0  0
   43.3652   10.7569   16.9470 C   0  0  0  0  0  0  0  0  0  0  0  0
   42.3443   11.5877   16.4784 C   0  0  0  0  0  0  0  0  0  0  0  0
   42.6245   12.9340   16.0147 C   0  0  0  0  0  0  0  0  0  0  0  0
   43.6360   14.0254   16.9149 S   0  0  0  0  0  0  0  0  0  0  0  0
   43.3652   15.3253   15.7666 C   0  0  0  0  0  0  0  0  0  0  0  0
   44.0434   16.6123   16.0511 C   0  0  0  0  0  0  0  0  0  0  0  0
   44.7708   16.6963   17.0648 O   0  5  0  0  0  0  0  0  0  0  0  0
   43.8790   17.5779   15.2720 O   0  0  0  0  0  0  0  0  0  0  0  0
   42.5145   14.9212   14.7395 C   0  0  0  0  0  0  0  0  0  0  0  0
   42.0386   15.7416   13.7736 O   0  0  0  0  0  0  0  0  0  0  0  0
   40.7906   16.3656   14.0670 C   0  0  0  0  0  0  0  0  0  0  0  0
   40.3516   17.2925   12.9309 C   0  0  0  0  0  0  0  0  0  0  0  0
   41.1068   17.3767   11.9372 O   0  5  0  0  0  0  0  0  0  0  0  0
   39.2649   17.8954   13.0716 O   0  0  0  0  0  0  0  0  0  0  0  0
   42.1856   13.5746   14.8668 C   0  0  0  0  0  0  0  0  0  0  0  0
   41.1521   12.7037   13.5216 Br  0  0  0  0  0  0  0  0  0  0  0  0
   41.0347   11.0942   16.4477 C   0  0  0  0  0  0  0  0  0  0  0  0
   36.9735    6.4916   14.5918 H   0  0  0  0  0  0  0  0  0  0  0  0
   38.0852    5.6749   15.6884 H   0  0  0  0  0  0  0  0  0  0  0  0
   36.4104    5.1425   15.5677 H   0  0  0  0  0  0  0  0  0  0  0  0
   35.6305    7.3110   16.5295 H   0  0  0  0  0  0  0  0  0  0  0  0
   36.4222    7.0102   18.8608 H   0  0  0  0  0  0  0  0  0  0  0  0
   36.0625    5.4568   18.1188 H   0  0  0  0  0  0  0  0  0  0  0  0
   37.7356    5.9760   18.3013 H   0  0  0  0  0  0  0  0  0  0  0  0
   37.0794    9.0573   16.5417 H   0  0  0  0  0  0  0  0  0  0  0  0
   38.7197   10.1329   16.6175 H   0  0  0  0  0  0  0  0  0  0  0  0
   41.5991    7.9639   17.6500 H   0  0  0  0  0  0  0  0  0  0  0  0
   43.8791    8.8263   17.7392 H   0  0  0  0  0  0  0  0  0  0  0  0
   44.3805   11.1222   16.9988 H   0  0  0  0  0  0  0  0  0  0  0  0
   40.0404   15.5854   14.1974 H   0  0  0  0  0  0  0  0  0  0  0  0
   40.8239   16.9207   15.0061 H   0  0  0  0  0  0  0  0  0  0  0  0
   40.2377   11.7353   16.0992 H   0  0  0  0  0  0  0  0  0  0  0  0
  1  2  1  0
  2  3  1  0
  2  4  1  0
  4  5  1  0
  5  6  2  0
  5  7  1  0
  7  8  1  0
  8  9  2  0
  8 27  1  0
  9 10  1  0
 10 11  2  0
 11 12  1  0
 12 13  1  0
 12 27  2  0
 13 14  1  0
 13 25  2  0
 14 15  1  0
 15 16  1  0
 15 19  2  0
 16 17  1  0
 16 18  2  0
 19 20  1  0
 19 25  1  0
 20 21  1  0
 21 22  1  0
 22 23  1  0
 22 24  2  0
 25 26  1  0
  1 28  1  0
  1 29  1  0
  1 30  1  0
  2 31  1  0
  3 32  1  0
  3 33  1  0
  3 34  1  0
  4 35  1  0
  7 36  1  0
  9 37  1  0
 10 38  1  0
 11 39  1  0
 21 40  1  0
 21 41  1  0
 27 42  1  0
M  CHG  2  17  -1  23  -1
M  END
>  <i_m_stars>
2

>  <r_user_dG.exp>
-7.72301857947764

>  <ptp1b_ 23469 Relative Activity>
1.1

>  <ptp1b_ 23469 Relative Activity Error>
1.7

>  <Total Formal Charge>
-2

>  <Favorite_cresset>
false

>  <MW_cresset>
455.3

>  <#Atoms_cresset>
27

>  <SlogP_cresset>
3.9

>  <TPSA_cresset>
130.6

>  <Flexibility_cresset>
4.5

>  <Rof5_cresset>
0

>  <Confs_cresset>
0

>  <Poses_cresset>
0

$$$$
23486
  xed2sdf           3D
 
 60 63  0  0  0  0  0  0  0  0999 V2000
   41.3719   17.7859   11.8178 O   0  5  0  0  0  0  0  0  0  0  0  0
   40.5610   17.6340   12.7587 C   0  0  0  0  0  0  0  0  0  0  0  0
   39.4799   18.2504   12.8841 O   0  0  0  0  0  0  0  0  0  0  0  0
   40.9135   16.6417   13.8689 C   0  0  0  0  0  0  0  0  0  0  0  0
   42.1428   15.9801   13.5995 O   0  0  0  0  0  0  0  0  0  0  0  0
   42.5067   15.0961   14.5535 C   0  0  0  0  0  0  0  0  0  0  0  0
   42.1050   13.7638   14.6029 C   0  0  0  0  0  0  0  0  0  0  0  0
   41.1936   13.1078   13.3221 Cl  0  0  0  0  0  0  0  0  0  0  0  0
   42.4736   13.0428   15.7309 C   0  0  0  0  0  0  0  0  0  0  0  0
   42.1345   11.6814   16.1187 C   0  0  0  0  0  0  0  0  0  0  0  0
   43.0991   10.8232   16.6550 C   0  0  0  0  0  0  0  0  0  0  0  0
   42.7730    9.5138   17.0059 C   0  0  0  0  0  0  0  0  0  0  0  0
   41.4767    9.0403   16.8075 C   0  0  0  0  0  0  0  0  0  0  0  0
   40.4943    9.8795   16.2662 C   0  0  0  0  0  0  0  0  0  0  0  0
   39.1733    9.4611   16.0229 N   0  0  0  0  0  0  0  0  0  0  0  0
   38.8803    8.0706   15.6816 C   0  0  0  0  0  0  0  0  0  0  0  0
   37.3499    7.8627   15.5714 C   0  0  0  0  0  0  0  0  0  0  0  0
   36.9746    6.4537   15.0726 C   0  0  0  0  0  0  0  0  0  0  0  0
   37.7104    6.1236   13.8434 N   0  0  0  0  0  0  0  0  0  0  0  0
   36.9761    5.2050   12.5892 S   0  0  0  0  0  0  0  0  0  0  0  0
   37.8364    5.3259   11.4042 O   0  0  0  0  0  0  0  0  0  0  0  0
   35.5548    5.5863   12.5166 O   0  0  0  0  0  0  0  0  0  0  0  0
   37.1037    3.4728   13.2183 C   0  0  0  0  0  0  0  0  0  0  0  0
   36.7136    2.5266   12.0998 C   0  0  0  0  0  0  0  0  0  0  0  0
   35.3715    2.1867   11.9063 C   0  0  0  0  0  0  0  0  0  0  0  0
   35.0075    1.3509   10.8514 C   0  0  0  0  0  0  0  0  0  0  0  0
   35.9839    0.8540    9.9894 C   0  0  0  0  0  0  0  0  0  0  0  0
   37.3260    1.1810   10.1830 C   0  0  0  0  0  0  0  0  0  0  0  0
   37.6914    2.0147   11.2396 C   0  0  0  0  0  0  0  0  0  0  0  0
   39.1749    6.2318   13.9220 C   0  0  0  0  0  0  0  0  0  0  0  0
   39.5890    7.6410   14.3716 C   0  0  0  0  0  0  0  0  0  0  0  0
   40.8302   11.1974   15.9487 C   0  0  0  0  0  0  0  0  0  0  0  0
   43.4982   14.0501   16.7177 S   0  0  0  0  0  0  0  0  0  0  0  0
   43.3217   15.4163   15.6304 C   0  0  0  0  0  0  0  0  0  0  0  0
   44.0366   16.6604   15.9998 C   0  0  0  0  0  0  0  0  0  0  0  0
   44.7231   16.6703   17.0446 O   0  5  0  0  0  0  0  0  0  0  0  0
   43.9382   17.6666   15.2618 O   0  0  0  0  0  0  0  0  0  0  0  0
   40.1097   15.9098   13.9588 H   0  0  0  0  0  0  0  0  0  0  0  0
   40.9711   17.1834   14.8146 H   0  0  0  0  0  0  0  0  0  0  0  0
   44.1107   11.1702   16.8078 H   0  0  0  0  0  0  0  0  0  0  0  0
   43.5251    8.8657   17.4310 H   0  0  0  0  0  0  0  0  0  0  0  0
   41.2433    8.0195   17.0736 H   0  0  0  0  0  0  0  0  0  0  0  0
   38.4432   10.1496   16.1366 H   0  0  0  0  0  0  0  0  0  0  0  0
   39.2589    7.4686   16.5076 H   0  0  0  0  0  0  0  0  0  0  0  0
   36.8766    8.0462   16.5360 H   0  0  0  0  0  0  0  0  0  0  0  0
   36.9348    8.6028   14.8873 H   0  0  0  0  0  0  0  0  0  0  0  0
   37.2043    5.6975   15.8233 H   0  0  0  0  0  0  0  0  0  0  0  0
   35.9002    6.3859   14.9017 H   0  0  0  0  0  0  0  0  0  0  0  0
   38.1412    3.3049   13.5075 H   0  0  0  0  0  0  0  0  0  0  0  0
   36.4977    3.3763   14.1188 H   0  0  0  0  0  0  0  0  0  0  0  0
   34.6147    2.5649   12.5777 H   0  0  0  0  0  0  0  0  0  0  0  0
   33.9702    1.0888   10.7035 H   0  0  0  0  0  0  0  0  0  0  0  0
   35.7015    0.2167    9.1646 H   0  0  0  0  0  0  0  0  0  0  0  0
   38.0784    0.7898    9.5143 H   0  0  0  0  0  0  0  0  0  0  0  0
   38.7325    2.2599   11.3891 H   0  0  0  0  0  0  0  0  0  0  0  0
   39.5253    5.4655   14.6134 H   0  0  0  0  0  0  0  0  0  0  0  0
   39.6129    5.9826   12.9555 H   0  0  0  0  0  0  0  0  0  0  0  0
   39.3499    8.3541   13.5828 H   0  0  0  0  0  0  0  0  0  0  0  0
   40.6706    7.6852   14.4991 H   0  0  0  0  0  0  0  0  0  0  0  0
   40.0961   11.8770   15.5523 H   0  0  0  0  0  0  0  0  0  0  0  0
  1  2  1  0
  2  3  2  0
  2  4  1  0
  4  5  1  0
  5  6  1  0
  6  7  1  0
  6 34  2  0
  7  8  1  0
  7  9  2  0
  9 10  1  0
  9 33  1  0
 10 11  2  0
 10 32  1  0
 11 12  1  0
 12 13  2  0
 13 14  1  0
 14 15  1  0
 14 32  2  0
 15 16  1  0
 16 17  1  0
 16 31  1  0
 17 18  1  0
 18 19  1  0
 19 20  1  0
 19 30  1  0
 20 21  2  0
 20 22  2  0
 20 23  1  0
 23 24  1  0
 24 25  2  0
 24 29  1  0
 25 26  1  0
 26 27  2  0
 27 28  1  0
 28 29  2  0
 30 31  1  0
 33 34  1  0
 34 35  1  0
 35 36  1  0
 35 37  2  0
  4 38  1  0
  4 39  1  0
 11 40  1  0
 12 41  1  0
 13 42  1  0
 15 43  1  0
 16 44  1  0
 17 45  1  0
 17 46  1  0
 18 47  1  0
 18 48  1  0
 23 49  1  0
 23 50  1  0
 25 51  1  0
 26 52  1  0
 27 53  1  0
 28 54  1  0
 29 55  1  0
 30 56  1  0
 30 57  1  0
 31 58  1  0
 31 59  1  0
 32 60  1  0
M  CHG  2   1  -1  36  -1
M  END
>  <i_m_stars>
2

>  <r_user_dG.exp>
-12.4697848806838

>  <ptp1b_ 23469 Relative Activity>
0.3

>  <ptp1b_ 23469 Relative Activity Error>
4.3

>  <Total Formal Charge>
-2

>  <Favorite_cresset>
false

>  <MW_cresset>
563

>  <#Atoms_cresset>
37

>  <SlogP_cresset>
4.7

>  <TPSA_cresset>
138.9

>  <Flexibility_cresset>
8

>  <Rof5_cresset>
1

>  <Confs_cresset>
0

>  <Poses_cresset>
0

$$$$
20669(2qbr)
  xed2sdf           3D
 
 42 44  0  0  0  0  0  0  0  0999 V2000
   39.2345   17.6631   12.7846 O   0  5  0  0  0  0  0  0  0  0  0  0
   40.3521   17.1021   12.7361 C   0  0  0  0  0  0  0  0  0  0  0  0
   41.1778   17.2187   11.8038 O   0  0  0  0  0  0  0  0  0  0  0  0
   40.7693   16.2193   13.9145 C   0  0  0  0  0  0  0  0  0  0  0  0
   42.0927   15.7293   13.7433 O   0  0  0  0  0  0  0  0  0  0  0  0
   42.5145   14.9212   14.7395 C   0  0  0  0  0  0  0  0  0  0  0  0
   42.1856   13.5746   14.8668 C   0  0  0  0  0  0  0  0  0  0  0  0
   41.2068   12.6501   13.5170 Br  0  0  0  0  0  0  0  0  0  0  0  0
   42.6245   12.9340   16.0147 C   0  0  0  0  0  0  0  0  0  0  0  0
   42.3443   11.5877   16.4784 C   0  0  0  0  0  0  0  0  0  0  0  0
   43.3652   10.7569   16.9470 C   0  0  0  0  0  0  0  0  0  0  0  0
   43.0859    9.4573   17.3660 C   0  0  0  0  0  0  0  0  0  0  0  0
   41.7792    8.9724   17.3118 C   0  0  0  0  0  0  0  0  0  0  0  0
   40.7401    9.7888   16.8448 C   0  0  0  0  0  0  0  0  0  0  0  0
   39.3981    9.3768   16.7741 N   0  0  0  0  0  0  0  0  0  0  0  0
   38.9977    7.9742   16.7120 C   0  0  0  0  0  0  0  0  0  0  0  0
   39.0447    7.4076   15.2989 C   0  0  0  0  0  0  0  0  0  0  0  0
   40.2643    7.0598   14.7072 C   0  0  0  0  0  0  0  0  0  0  0  0
   40.2940    6.5235   13.4197 C   0  0  0  0  0  0  0  0  0  0  0  0
   39.1060    6.3134   12.7236 C   0  0  0  0  0  0  0  0  0  0  0  0
   37.8875    6.6562   13.3069 C   0  0  0  0  0  0  0  0  0  0  0  0
   37.8553    7.2050   14.5894 C   0  0  0  0  0  0  0  0  0  0  0  0
   41.0347   11.0942   16.4477 C   0  0  0  0  0  0  0  0  0  0  0  0
   43.6360   14.0254   16.9149 S   0  0  0  0  0  0  0  0  0  0  0  0
   43.3652   15.3253   15.7666 C   0  0  0  0  0  0  0  0  0  0  0  0
   44.0487   16.6108   16.0384 C   0  0  0  0  0  0  0  0  0  0  0  0
   43.8748   17.5611   15.2449 O   0  5  0  0  0  0  0  0  0  0  0  0
   44.7784   16.7153   17.0499 O   0  0  0  0  0  0  0  0  0  0  0  0
   40.7112   16.7969   14.8381 H   0  0  0  0  0  0  0  0  0  0  0  0
   40.0553   15.3978   13.9950 H   0  0  0  0  0  0  0  0  0  0  0  0
   44.3838   11.1152   16.9827 H   0  0  0  0  0  0  0  0  0  0  0  0
   43.8828    8.8262   17.7310 H   0  0  0  0  0  0  0  0  0  0  0  0
   41.5909    7.9603   17.6367 H   0  0  0  0  0  0  0  0  0  0  0  0
   38.6574   10.0626   16.8096 H   0  0  0  0  0  0  0  0  0  0  0  0
   39.6610    7.3813   17.3429 H   0  0  0  0  0  0  0  0  0  0  0  0
   37.9898    7.8713   17.1160 H   0  0  0  0  0  0  0  0  0  0  0  0
   41.1892    7.2050   15.2463 H   0  0  0  0  0  0  0  0  0  0  0  0
   41.2390    6.2704   12.9621 H   0  0  0  0  0  0  0  0  0  0  0  0
   39.1291    5.8845   11.7326 H   0  0  0  0  0  0  0  0  0  0  0  0
   36.9665    6.4969   12.7658 H   0  0  0  0  0  0  0  0  0  0  0  0
   36.9062    7.4739   15.0296 H   0  0  0  0  0  0  0  0  0  0  0  0
   40.2333   11.7381   16.1154 H   0  0  0  0  0  0  0  0  0  0  0  0
  1  2  1  0
  2  3  2  0
  2  4  1  0
  4  5  1  0
  5  6  1  0
  6  7  1  0
  6 25  2  0
  7  8  1  0
  7  9  2  0
  9 10  1  0
  9 24  1  0
 10 11  2  0
 10 23  1  0
 11 12  1  0
 12 13  2  0
 13 14  1  0
 14 15  1  0
 14 23  2  0
 15 16  1  0
 16 17  1  0
 17 18  2  0
 17 22  1  0
 18 19  1  0
 19 20  2  0
 20 21  1  0
 21 22  2  0
 24 25  1  0
 25 26  1  0
 26 27  1  0
 26 28  2  0
  4 29  1  0
  4 30  1  0
 11 31  1  0
 12 32  1  0
 13 33  1  0
 15 34  1  0
 16 35  1  0
 16 36  1  0
 18 37  1  0
 19 38  1  0
 20 39  1  0
 21 40  1  0
 22 41  1  0
 23 42  1  0
M  CHG  2   1  -1  27  -1
M  END
>  <i_m_stars>
3

>  <r_user_dG.exp>
-8.60732535283582

>  <ptp1b_ 23469 Relative Activity>
0.1

>  <ptp1b_ 23469 Relative Activity Error>
1.5

>  <Total Formal Charge>
-2

>  <Favorite_cresset>
false

>  <MW_cresset>
460.3

>  <#Atoms_cresset>
28

>  <SlogP_cresset>
5

>  <TPSA_cresset>
101.5

>  <Flexibility_cresset>
5

>  <Rof5_cresset>
1

>  <Confs_cresset>
0

>  <Poses_cresset>
0

$$$$
23482
  xed2sdf           3D
 
 50 52  0  0  0  0  0  0  0  0999 V2000
   37.1386    3.6507   13.3296 C   0  0  0  0  0  0  0  0  0  0  0  0
   36.9832    5.2832   12.5563 S   0  0  0  0  0  0  0  0  0  0  0  0
   35.6024    5.6430   12.5116 O   0  0  0  0  0  0  0  0  0  0  0  0
   37.7378    5.2936   11.3447 O   0  0  0  0  0  0  0  0  0  0  0  0
   37.7083    6.3144   13.5769 N   0  0  0  0  0  0  0  0  0  0  0  0
   37.0883    6.5610   14.8896 C   0  0  0  0  0  0  0  0  0  0  0  0
   37.5063    7.9519   15.4013 C   0  0  0  0  0  0  0  0  0  0  0  0
   39.0426    8.0732   15.5306 C   0  0  0  0  0  0  0  0  0  0  0  0
   39.3472    9.5079   15.6925 N   0  0  0  0  0  0  0  0  0  0  0  0
   40.5924    9.9797   16.1278 C   0  0  0  0  0  0  0  0  0  0  0  0
   41.4266    9.2330   16.9512 C   0  0  0  0  0  0  0  0  0  0  0  0
   42.6165    9.7740   17.3976 C   0  0  0  0  0  0  0  0  0  0  0  0
   42.9903   11.0402   17.0303 C   0  0  0  0  0  0  0  0  0  0  0  0
   42.1872   11.8071   16.1755 C   0  0  0  0  0  0  0  0  0  0  0  0
   42.5410   13.1183   15.7681 C   0  0  0  0  0  0  0  0  0  0  0  0
   43.8755   13.9835   16.5856 S   0  0  0  0  0  0  0  0  0  0  0  0
   43.4980   15.4074   15.5770 C   0  0  0  0  0  0  0  0  0  0  0  0
   44.2878   16.5617   15.8653 C   0  0  0  0  0  0  0  0  0  0  0  0
   45.1360   16.4631   16.7943 O   0  5  0  0  0  0  0  0  0  0  0  0
   44.0601   17.5899   15.1714 O   0  0  0  0  0  0  0  0  0  0  0  0
   42.4785   15.1814   14.6719 C   0  0  0  0  0  0  0  0  0  0  0  0
   42.0830   16.1257   13.8018 O   0  0  0  0  0  0  0  0  0  0  0  0
   40.6676   16.3082   13.6007 C   0  0  0  0  0  0  0  0  0  0  0  0
   40.4257   17.2215   12.4265 C   0  0  0  0  0  0  0  0  0  0  0  0
   39.2055   17.4575   12.1188 O   0  5  0  0  0  0  0  0  0  0  0  0
   41.4584   17.6820   11.8267 O   0  0  0  0  0  0  0  0  0  0  0  0
   41.9549   13.8902   14.7789 C   0  0  0  0  0  0  0  0  0  0  0  0
   40.5889   13.2346   13.6495 Br  0  0  0  0  0  0  0  0  0  0  0  0
   40.9865   11.2379   15.7474 C   0  0  0  0  0  0  0  0  0  0  0  0
   39.7340    7.5799   14.2393 C   0  0  0  0  0  0  0  0  0  0  0  0
   39.1679    6.2285   13.7587 C   0  0  0  0  0  0  0  0  0  0  0  0
   38.2996    3.3710   13.4501 H   0  0  0  0  0  0  0  0  0  0  0  0
   36.6160    3.6747   14.4096 H   0  0  0  0  0  0  0  0  0  0  0  0
   36.5999    2.8271   12.6429 H   0  0  0  0  0  0  0  0  0  0  0  0
   35.8956    6.5549   14.7584 H   0  0  0  0  0  0  0  0  0  0  0  0
   37.3957    5.7105   15.6786 H   0  0  0  0  0  0  0  0  0  0  0  0
   36.9989    8.1592   16.4689 H   0  0  0  0  0  0  0  0  0  0  0  0
   37.1014    8.7553   14.6067 H   0  0  0  0  0  0  0  0  0  0  0  0
   39.3912    7.4172   16.4718 H   0  0  0  0  0  0  0  0  0  0  0  0
   38.6638   10.0448   15.8365 H   0  0  0  0  0  0  0  0  0  0  0  0
   41.1650    8.3115   17.2325 H   0  0  0  0  0  0  0  0  0  0  0  0
   43.2091    9.2377   17.9982 H   0  0  0  0  0  0  0  0  0  0  0  0
   43.8511   11.4189   17.3699 H   0  0  0  0  0  0  0  0  0  0  0  0
   40.1263   15.2634   13.3681 H   0  0  0  0  0  0  0  0  0  0  0  0
   40.1914   16.7921   14.5900 H   0  0  0  0  0  0  0  0  0  0  0  0
   40.3869   11.7703   15.1504 H   0  0  0  0  0  0  0  0  0  0  0  0
   40.9134    7.4764   14.4351 H   0  0  0  0  0  0  0  0  0  0  0  0
   39.5470    8.3872   13.3716 H   0  0  0  0  0  0  0  0  0  0  0  0
   39.6674    5.9731   12.6981 H   0  0  0  0  0  0  0  0  0  0  0  0
   39.4485    5.3596   14.5375 H   0  0  0  0  0  0  0  0  0  0  0  0
  1  2  1  0
  2  3  2  0
  2  4  2  0
  2  5  1  0
  5  6  1  0
  5 31  1  0
  6  7  1  0
  7  8  1  0
  8  9  1  0
  8 30  1  0
  9 10  1  0
 10 11  2  0
 10 29  1  0
 11 12  1  0
 12 13  2  0
 13 14  1  0
 14 15  1  0
 14 29  2  0
 15 16  1  0
 15 27  2  0
 16 17  1  0
 17 18  1  0
 17 21  2  0
 18 19  1  0
 18 20  2  0
 21 22  1  0
 21 27  1  0
 22 23  1  0
 23 24  1  0
 24 25  1  0
 24 26  2  0
 27 28  1  0
 30 31  1  0
  1 32  1  0
  1 33  1  0
  1 34  1  0
  6 35  1  0
  6 36  1  0
  7 37  1  0
  7 38  1  0
  8 39  1  0
  9 40  1  0
 11 41  1  0
 12 42  1  0
 13 43  1  0
 23 44  1  0
 23 45  1  0
 29 46  1  0
 30 47  1  0
 30 48  1  0
 31 49  1  0
 31 50  1  0
M  CHG  2  19  -1  25  -1
M  END
>  <i_m_stars>
2

>  <r_user_dG.exp>
-10.0065068747035

>  <ptp1b_ 23469 Relative Activity>
1.6

>  <ptp1b_ 23469 Relative Activity Error>
4.2

>  <Total Formal Charge>
-2

>  <Favorite_cresset>
false

>  <MW_cresset>
531.4

>  <#Atoms_cresset>
31

>  <SlogP_cresset>
3.2

>  <TPSA_cresset>
138.9

>  <Flexibility_cresset>
6

>  <Rof5_cresset>
1

>  <Confs_cresset>
0

>  <Poses_cresset>
0

$$$$
23483
  xed2sdf           3D
 
 57 60  0  0  0  0  0  0  0  0999 V2000
   41.5076   17.6533   11.6485 O   0  5  0  0  0  0  0  0  0  0  0  0
   40.5987   17.4811   12.4903 C   0  0  0  0  0  0  0  0  0  0  0  0
   39.4797   18.0394   12.4716 O   0  0  0  0  0  0  0  0  0  0  0  0
   40.8849   16.5382   13.6616 C   0  0  0  0  0  0  0  0  0  0  0  0
   42.1831   15.9568   13.5607 O   0  0  0  0  0  0  0  0  0  0  0  0
   42.5067   15.0961   14.5535 C   0  0  0  0  0  0  0  0  0  0  0  0
   42.1050   13.7638   14.6029 C   0  0  0  0  0  0  0  0  0  0  0  0
   41.1305   12.9484   13.1815 Br  0  0  0  0  0  0  0  0  0  0  0  0
   42.4736   13.0428   15.7309 C   0  0  0  0  0  0  0  0  0  0  0  0
   42.1345   11.6814   16.1187 C   0  0  0  0  0  0  0  0  0  0  0  0
   43.0991   10.8232   16.6550 C   0  0  0  0  0  0  0  0  0  0  0  0
   42.7730    9.5138   17.0059 C   0  0  0  0  0  0  0  0  0  0  0  0
   41.4767    9.0403   16.8075 C   0  0  0  0  0  0  0  0  0  0  0  0
   40.4943    9.8795   16.2662 C   0  0  0  0  0  0  0  0  0  0  0  0
   39.1733    9.4611   16.0229 N   0  0  0  0  0  0  0  0  0  0  0  0
   38.8803    8.0706   15.6816 C   0  0  0  0  0  0  0  0  0  0  0  0
   37.3499    7.8627   15.5714 C   0  0  0  0  0  0  0  0  0  0  0  0
   36.9746    6.4537   15.0726 C   0  0  0  0  0  0  0  0  0  0  0  0
   37.7104    6.1236   13.8434 N   0  0  0  0  0  0  0  0  0  0  0  0
   36.9907    5.9581   12.5378 S   0  0  0  0  0  0  0  0  0  0  0  0
   35.7144    6.6849   12.6224 O   0  0  0  0  0  0  0  0  0  0  0  0
   37.9478    6.2523   11.4601 O   0  0  0  0  0  0  0  0  0  0  0  0
   36.6716    4.1994   12.4996 C   0  0  0  0  0  0  0  0  0  0  0  0
   37.7585    3.3029   12.4915 C   0  0  0  0  0  0  0  0  0  0  0  0
   37.5162    1.9153   12.4802 C   0  0  0  0  0  0  0  0  0  0  0  0
   36.1926    1.4309   12.4791 C   0  0  0  0  0  0  0  0  0  0  0  0
   35.1089    2.3322   12.4905 C   0  0  0  0  0  0  0  0  0  0  0  0
   35.3462    3.7207   12.5036 C   0  0  0  0  0  0  0  0  0  0  0  0
   39.1749    6.2318   13.9220 C   0  0  0  0  0  0  0  0  0  0  0  0
   39.5890    7.6410   14.3716 C   0  0  0  0  0  0  0  0  0  0  0  0
   40.8302   11.1974   15.9487 C   0  0  0  0  0  0  0  0  0  0  0  0
   43.4983   14.0501   16.7177 S   0  0  0  0  0  0  0  0  0  0  0  0
   43.3217   15.4163   15.6304 C   0  0  0  0  0  0  0  0  0  0  0  0
   44.0454   16.6569   15.9983 C   0  0  0  0  0  0  0  0  0  0  0  0
   44.7330   16.6641   17.0426 O   0  5  0  0  0  0  0  0  0  0  0  0
   43.9488   17.6647   15.2624 O   0  0  0  0  0  0  0  0  0  0  0  0
   40.0978   15.7842   13.7296 H   0  0  0  0  0  0  0  0  0  0  0  0
   40.8414   17.1162   14.5847 H   0  0  0  0  0  0  0  0  0  0  0  0
   44.1129   11.1673   16.7997 H   0  0  0  0  0  0  0  0  0  0  0  0
   43.5255    8.8665   17.4316 H   0  0  0  0  0  0  0  0  0  0  0  0
   41.2413    8.0207   17.0763 H   0  0  0  0  0  0  0  0  0  0  0  0
   38.4390   10.1449   16.1373 H   0  0  0  0  0  0  0  0  0  0  0  0
   39.2589    7.4686   16.5076 H   0  0  0  0  0  0  0  0  0  0  0  0
   36.8766    8.0462   16.5360 H   0  0  0  0  0  0  0  0  0  0  0  0
   36.9348    8.6028   14.8873 H   0  0  0  0  0  0  0  0  0  0  0  0
   37.2043    5.6975   15.8233 H   0  0  0  0  0  0  0  0  0  0  0  0
   35.9002    6.3859   14.9017 H   0  0  0  0  0  0  0  0  0  0  0  0
   38.7715    3.6780   12.4933 H   0  0  0  0  0  0  0  0  0  0  0  0
   38.3450    1.2228   12.4717 H   0  0  0  0  0  0  0  0  0  0  0  0
   36.0080    0.3668   12.4686 H   0  0  0  0  0  0  0  0  0  0  0  0
   34.0953    1.9593   12.4874 H   0  0  0  0  0  0  0  0  0  0  0  0
   34.5143    4.4097   12.5081 H   0  0  0  0  0  0  0  0  0  0  0  0
   39.5253    5.4655   14.6134 H   0  0  0  0  0  0  0  0  0  0  0  0
   39.6129    5.9826   12.9555 H   0  0  0  0  0  0  0  0  0  0  0  0
   39.3499    8.3541   13.5828 H   0  0  0  0  0  0  0  0  0  0  0  0
   40.6706    7.6852   14.4991 H   0  0  0  0  0  0  0  0  0  0  0  0
   40.0962   11.8860   15.5702 H   0  0  0  0  0  0  0  0  0  0  0  0
  1  2  1  0
  2  3  2  0
  2  4  1  0
  4  5  1  0
  5  6  1  0
  6  7  1  0
  6 33  2  0
  7  8  1  0
  7  9  2  0
  9 10  1  0
  9 32  1  0
 10 11  2  0
 10 31  1  0
 11 12  1  0
 12 13  2  0
 13 14  1  0
 14 15  1  0
 14 31  2  0
 15 16  1  0
 16 17  1  0
 16 30  1  0
 17 18  1  0
 18 19  1  0
 19 20  1  0
 19 29  1  0
 20 21  2  0
 20 22  2  0
 20 23  1  0
 23 24  2  0
 23 28  1  0
 24 25  1  0
 25 26  2  0
 26 27  1  0
 27 28  2  0
 29 30  1  0
 32 33  1  0
 33 34  1  0
 34 35  1  0
 34 36  2  0
  4 37  1  0
  4 38  1  0
 11 39  1  0
 12 40  1  0
 13 41  1  0
 15 42  1  0
 16 43  1  0
 17 44  1  0
 17 45  1  0
 18 46  1  0
 18 47  1  0
 24 48  1  0
 25 49  1  0
 26 50  1  0
 27 51  1  0
 28 52  1  0
 29 53  1  0
 29 54  1  0
 30 55  1  0
 30 56  1  0
 31 57  1  0
M  CHG  2   1  -1  35  -1
M  END
>  <i_m_stars>
2

>  <r_user_dG.exp>
-9.8746881466035

>  <ptp1b_ 23469 Relative Activity>
2.7

>  <ptp1b_ 23469 Relative Activity Error>
3.2

>  <Total Formal Charge>
-2

>  <Favorite_cresset>
false

>  <MW_cresset>
593.5

>  <#Atoms_cresset>
36

>  <SlogP_cresset>
4.7

>  <TPSA_cresset>
138.9

>  <Flexibility_cresset>
7

>  <Rof5_cresset>
1

>  <Confs_cresset>
0

>  <Poses_cresset>
0

$$$$
23473
  xed2sdf           3D
 
 41 43  0  0  0  0  0  0  0  0999 V2000
   41.1487   17.2240   11.7776 O   0  5  0  0  0  0  0  0  0  0  0  0
   40.3529   17.1026   12.7358 C   0  0  0  0  0  0  0  0  0  0  0  0
   39.2219   17.6321   12.8053 O   0  0  0  0  0  0  0  0  0  0  0  0
   40.7697   16.2194   13.9140 C   0  0  0  0  0  0  0  0  0  0  0  0
   42.0931   15.7293   13.7432 O   0  0  0  0  0  0  0  0  0  0  0  0
   42.5145   14.9212   14.7395 C   0  0  0  0  0  0  0  0  0  0  0  0
   42.1856   13.5746   14.8668 C   0  0  0  0  0  0  0  0  0  0  0  0
   41.2074   12.6499   13.5167 Br  0  0  0  0  0  0  0  0  0  0  0  0
   42.6245   12.9340   16.0147 C   0  0  0  0  0  0  0  0  0  0  0  0
   42.3443   11.5877   16.4784 C   0  0  0  0  0  0  0  0  0  0  0  0
   43.3652   10.7569   16.9470 C   0  0  0  0  0  0  0  0  0  0  0  0
   43.0859    9.4573   17.3660 C   0  0  0  0  0  0  0  0  0  0  0  0
   41.7792    8.9724   17.3118 C   0  0  0  0  0  0  0  0  0  0  0  0
   40.7401    9.7888   16.8448 C   0  0  0  0  0  0  0  0  0  0  0  0
   39.3981    9.3768   16.7741 O   0  0  0  0  0  0  0  0  0  0  0  0
   38.9977    7.9742   16.7120 C   0  0  0  0  0  0  0  0  0  0  0  0
   39.0447    7.4076   15.2989 C   0  0  0  0  0  0  0  0  0  0  0  0
   40.2643    7.0598   14.7072 C   0  0  0  0  0  0  0  0  0  0  0  0
   40.2940    6.5235   13.4197 C   0  0  0  0  0  0  0  0  0  0  0  0
   39.1060    6.3134   12.7236 C   0  0  0  0  0  0  0  0  0  0  0  0
   37.8875    6.6562   13.3069 C   0  0  0  0  0  0  0  0  0  0  0  0
   37.8553    7.2050   14.5894 C   0  0  0  0  0  0  0  0  0  0  0  0
   41.0347   11.0942   16.4477 C   0  0  0  0  0  0  0  0  0  0  0  0
   43.6360   14.0254   16.9149 S   0  0  0  0  0  0  0  0  0  0  0  0
   43.3652   15.3253   15.7666 C   0  0  0  0  0  0  0  0  0  0  0  0
   44.0488   16.6108   16.0384 C   0  0  0  0  0  0  0  0  0  0  0  0
   43.8750   17.5611   15.2449 O   0  5  0  0  0  0  0  0  0  0  0  0
   44.7786   16.7152   17.0498 O   0  0  0  0  0  0  0  0  0  0  0  0
   40.7111   16.7969   14.8377 H   0  0  0  0  0  0  0  0  0  0  0  0
   40.0558   15.3977   13.9940 H   0  0  0  0  0  0  0  0  0  0  0  0
   44.3838   11.1150   16.9830 H   0  0  0  0  0  0  0  0  0  0  0  0
   43.8832    8.8267   17.7310 H   0  0  0  0  0  0  0  0  0  0  0  0
   41.5989    7.9598   17.6387 H   0  0  0  0  0  0  0  0  0  0  0  0
   39.6605    7.3657   17.3291 H   0  0  0  0  0  0  0  0  0  0  0  0
   37.9822    7.8643   17.0961 H   0  0  0  0  0  0  0  0  0  0  0  0
   41.1904    7.2050   15.2442 H   0  0  0  0  0  0  0  0  0  0  0  0
   41.2391    6.2694   12.9628 H   0  0  0  0  0  0  0  0  0  0  0  0
   39.1289    5.8824   11.7335 H   0  0  0  0  0  0  0  0  0  0  0  0
   36.9663    6.4955   12.7664 H   0  0  0  0  0  0  0  0  0  0  0  0
   36.9065    7.4735   15.0304 H   0  0  0  0  0  0  0  0  0  0  0  0
   40.2305   11.7346   16.1160 H   0  0  0  0  0  0  0  0  0  0  0  0
  1  2  1  0
  2  3  2  0
  2  4  1  0
  4  5  1  0
  5  6  1  0
  6  7  1  0
  6 25  2  0
  7  8  1  0
  7  9  2  0
  9 10  1  0
  9 24  1  0
 10 11  2  0
 10 23  1  0
 11 12  1  0
 12 13  2  0
 13 14  1  0
 14 15  1  0
 14 23  2  0
 15 16  1  0
 16 17  1  0
 17 18  2  0
 17 22  1  0
 18 19  1  0
 19 20  2  0
 20 21  1  0
 21 22  2  0
 24 25  1  0
 25 26  1  0
 26 27  1  0
 26 28  2  0
  4 29  1  0
  4 30  1  0
 11 31  1  0
 12 32  1  0
 13 33  1  0
 16 34  1  0
 16 35  1  0
 18 36  1  0
 19 37  1  0
 20 38  1  0
 21 39  1  0
 22 40  1  0
 23 41  1  0
M  CHG  2   1  -1  27  -1
M  END
>  <i_m_stars>
2

>  <r_user_dG.exp>
-8.3891313751788

>  <ptp1b_ 23469 Relative Activity>
0

>  <ptp1b_ 23469 Relative Activity Error>
1.7

>  <Total Formal Charge>
-2

>  <Favorite_cresset>
false

>  <MW_cresset>
461.3

>  <#Atoms_cresset>
28

>  <SlogP_cresset>
5

>  <TPSA_cresset>
98.7

>  <Flexibility_cresset>
5.3

>  <Rof5_cresset>
0

>  <Confs_cresset>
0

>  <Poses_cresset>
0

$$$$
20670(2qbs)
  xed2sdf           3D
 
 45 47  0  0  0  0  0  0  0  0999 V2000
   41.1639   17.7415   12.1780 O   0  5  0  0  0  0  0  0  0  0  0  0
   40.3722   17.6063   13.1368 C   0  0  0  0  0  0  0  0  0  0  0  0
   39.3254   18.2679   13.3145 O   0  0  0  0  0  0  0  0  0  0  0  0
   40.7175   16.5469   14.1863 C   0  0  0  0  0  0  0  0  0  0  0  0
   41.9134   15.8492   13.8454 O   0  0  0  0  0  0  0  0  0  0  0  0
   42.3248   14.9326   14.7526 C   0  0  0  0  0  0  0  0  0  0  0  0
   41.8775   13.6145   14.7795 C   0  0  0  0  0  0  0  0  0  0  0  0
   40.6644   12.9348   13.4743 Br  0  0  0  0  0  0  0  0  0  0  0  0
   42.3473   12.8247   15.8292 C   0  0  0  0  0  0  0  0  0  0  0  0
   42.0577   11.4350   16.1601 C   0  0  0  0  0  0  0  0  0  0  0  0
   43.0417   10.5800   16.6715 C   0  0  0  0  0  0  0  0  0  0  0  0
   42.7506    9.2417   16.9424 C   0  0  0  0  0  0  0  0  0  0  0  0
   41.4814    8.7321   16.6725 C   0  0  0  0  0  0  0  0  0  0  0  0
   40.4829    9.5699   16.1594 C   0  0  0  0  0  0  0  0  0  0  0  0
   39.1835    9.1385   15.8446 N   0  0  0  0  0  0  0  0  0  0  0  0
   38.9114    7.7621   15.4291 C   0  0  0  0  0  0  0  0  0  0  0  0
   39.6099    7.4194   14.0884 C   0  0  0  0  0  0  0  0  0  0  0  0
   39.2402    6.0199   13.5606 C   0  0  0  0  0  0  0  0  0  0  0  0
   37.7153    5.8364   13.4582 C   0  0  0  0  0  0  0  0  0  0  0  0
   37.0173    6.1412   14.7978 C   0  0  0  0  0  0  0  0  0  0  0  0
   37.3829    7.5402   15.3340 C   0  0  0  0  0  0  0  0  0  0  0  0
   40.7764   10.9164   15.9496 C   0  0  0  0  0  0  0  0  0  0  0  0
   43.4366   13.7822   16.8006 S   0  0  0  0  0  0  0  0  0  0  0  0
   43.2081   15.1991   15.7938 C   0  0  0  0  0  0  0  0  0  0  0  0
   43.9470   16.4235   16.1845 C   0  0  0  0  0  0  0  0  0  0  0  0
   44.6954   16.3793   17.1852 O   0  5  0  0  0  0  0  0  0  0  0  0
   43.8111   17.4654   15.5045 O   0  0  0  0  0  0  0  0  0  0  0  0
   39.9034   15.8237   14.2410 H   0  0  0  0  0  0  0  0  0  0  0  0
   40.7838   17.0107   15.1721 H   0  0  0  0  0  0  0  0  0  0  0  0
   44.0372   10.9517   16.8661 H   0  0  0  0  0  0  0  0  0  0  0  0
   43.5096    8.5994   17.3640 H   0  0  0  0  0  0  0  0  0  0  0  0
   41.2784    7.6884   16.8636 H   0  0  0  0  0  0  0  0  0  0  0  0
   38.4189    9.7958   15.9008 H   0  0  0  0  0  0  0  0  0  0  0  0
   39.3330    7.1201   16.2024 H   0  0  0  0  0  0  0  0  0  0  0  0
   39.3536    8.1638   13.3345 H   0  0  0  0  0  0  0  0  0  0  0  0
   40.6913    7.4722   14.2150 H   0  0  0  0  0  0  0  0  0  0  0  0
   39.6904    5.8679   12.5796 H   0  0  0  0  0  0  0  0  0  0  0  0
   39.6604    5.2538   14.2121 H   0  0  0  0  0  0  0  0  0  0  0  0
   37.3186    6.4933   12.6841 H   0  0  0  0  0  0  0  0  0  0  0  0
   37.4834    4.8187   13.1442 H   0  0  0  0  0  0  0  0  0  0  0  0
   35.9367    6.0761   14.6707 H   0  0  0  0  0  0  0  0  0  0  0  0
   37.2845    5.3857   15.5367 H   0  0  0  0  0  0  0  0  0  0  0  0
   36.9252    7.6795   16.3134 H   0  0  0  0  0  0  0  0  0  0  0  0
   36.9434    8.2942   14.6809 H   0  0  0  0  0  0  0  0  0  0  0  0
   40.0054   11.5887   15.6068 H   0  0  0  0  0  0  0  0  0  0  0  0
  1  2  1  0
  2  3  2  0
  2  4  1  0
  4  5  1  0
  5  6  1  0
  6  7  1  0
  6 24  2  0
  7  8  1  0
  7  9  2  0
  9 10  1  0
  9 23  1  0
 10 11  2  0
 10 22  1  0
 11 12  1  0
 12 13  2  0
 13 14  1  0
 14 15  1  0
 14 22  2  0
 15 16  1  0
 16 17  1  0
 16 21  1  0
 17 18  1  0
 18 19  1  0
 19 20  1  0
 20 21  1  0
 23 24  1  0
 24 25  1  0
 25 26  1  0
 25 27  2  0
  4 28  1  0
  4 29  1  0
 11 30  1  0
 12 31  1  0
 13 32  1  0
 15 33  1  0
 16 34  1  0
 17 35  1  0
 17 36  1  0
 18 37  1  0
 18 38  1  0
 19 39  1  0
 19 40  1  0
 20 41  1  0
 20 42  1  0
 21 43  1  0
 21 44  1  0
 22 45  1  0
M  CHG  2   1  -1  26  -1
M  END
>  <i_m_stars>
3

>  <r_user_dG.exp>
-9.08323641464599

>  <ptp1b_ 23469 Relative Activity>
-0.9

>  <ptp1b_ 23469 Relative Activity Error>
1.3

>  <Total Formal Charge>
-2

>  <Favorite_cresset>
false

>  <MW_cresset>
452.3

>  <#Atoms_cresset>
27

>  <SlogP_cresset>
5.2

>  <TPSA_cresset>
101.5

>  <Flexibility_cresset>
5

>  <Rof5_cresset>
1

>  <Confs_cresset>
0

>  <Poses_cresset>
0

$$$$
23468
  xed2sdf           3D
 
 37 38  0  0  0  0  0  0  0  0999 V2000
   37.3038    6.0207   14.7782 C   0  0  0  0  0  0  0  0  0  0  0  0
   37.5441    7.3857   15.4416 C   0  0  0  0  0  0  0  0  0  0  0  0
   39.0107    7.6228   15.8168 C   0  0  0  0  0  0  0  0  0  0  0  0
   39.7628    6.6642   15.9916 O   0  0  0  0  0  0  0  0  0  0  0  0
   39.3847    8.9129   15.9015 N   0  0  0  0  0  0  0  0  0  0  0  0
   40.6707    9.4518   16.1790 C   0  0  0  0  0  0  0  0  0  0  0  0
   41.6984    8.7040   16.7853 C   0  0  0  0  0  0  0  0  0  0  0  0
   42.9338    9.3143   17.0710 C   0  0  0  0  0  0  0  0  0  0  0  0
   43.1410   10.6700   16.7518 C   0  0  0  0  0  0  0  0  0  0  0  0
   42.1184   11.4322   16.1450 C   0  0  0  0  0  0  0  0  0  0  0  0
   42.3322   12.8383   15.8154 C   0  0  0  0  0  0  0  0  0  0  0  0
   43.1854   13.8565   16.9461 S   0  0  0  0  0  0  0  0  0  0  0  0
   43.0171   15.2585   15.9044 C   0  0  0  0  0  0  0  0  0  0  0  0
   43.6041   16.5277   16.3926 C   0  0  0  0  0  0  0  0  0  0  0  0
   43.5028   17.5484   15.6779 O   0  5  0  0  0  0  0  0  0  0  0  0
   44.1829   16.5486   17.5021 O   0  0  0  0  0  0  0  0  0  0  0  0
   42.3335   14.9436   14.7511 C   0  0  0  0  0  0  0  0  0  0  0  0
   42.0634   15.8257   13.7651 O   0  0  0  0  0  0  0  0  0  0  0  0
   40.9041   16.6162   13.9936 C   0  0  0  0  0  0  0  0  0  0  0  0
   40.4216   17.2724   12.6981 C   0  0  0  0  0  0  0  0  0  0  0  0
   41.2809   17.6281   11.8606 O   0  5  0  0  0  0  0  0  0  0  0  0
   39.1845   17.3898   12.5564 O   0  0  0  0  0  0  0  0  0  0  0  0
   41.9618   13.5670   14.7145 C   0  0  0  0  0  0  0  0  0  0  0  0
   40.9942   12.8290   13.2469 Br  0  0  0  0  0  0  0  0  0  0  0  0
   40.8826   10.8086   15.8614 C   0  0  0  0  0  0  0  0  0  0  0  0
   36.2433    5.8732   14.5739 H   0  0  0  0  0  0  0  0  0  0  0  0
   37.8350    5.9382   13.8292 H   0  0  0  0  0  0  0  0  0  0  0  0
   37.6330    5.2034   15.4210 H   0  0  0  0  0  0  0  0  0  0  0  0
   37.2252    8.1837   14.7705 H   0  0  0  0  0  0  0  0  0  0  0  0
   36.9244    7.4622   16.3363 H   0  0  0  0  0  0  0  0  0  0  0  0
   38.6703    9.5922   15.6841 H   0  0  0  0  0  0  0  0  0  0  0  0
   41.5611    7.6677   17.0526 H   0  0  0  0  0  0  0  0  0  0  0  0
   43.7202    8.7432   17.5419 H   0  0  0  0  0  0  0  0  0  0  0  0
   44.0904   11.1286   16.9871 H   0  0  0  0  0  0  0  0  0  0  0  0
   40.0889   16.0102   14.3930 H   0  0  0  0  0  0  0  0  0  0  0  0
   41.1295   17.3893   14.7294 H   0  0  0  0  0  0  0  0  0  0  0  0
   40.0924   11.3709   15.3855 H   0  0  0  0  0  0  0  0  0  0  0  0
  1  2  1  0
  2  3  1  0
  3  4  2  0
  3  5  1  0
  5  6  1  0
  6  7  2  0
  6 25  1  0
  7  8  1  0
  8  9  2  0
  9 10  1  0
 10 11  1  0
 10 25  2  0
 11 12  1  0
 11 23  2  0
 12 13  1  0
 13 14  1  0
 13 17  2  0
 14 15  1  0
 14 16  2  0
 17 18  1  0
 17 23  1  0
 18 19  1  0
 19 20  1  0
 20 21  1  0
 20 22  2  0
 23 24  1  0
  1 26  1  0
  1 27  1  0
  1 28  1  0
  2 29  1  0
  2 30  1  0
  5 31  1  0
  7 32  1  0
  8 33  1  0
  9 34  1  0
 19 35  1  0
 19 36  1  0
 25 37  1  0
M  CHG  2  15  -1  21  -1
M  END
>  <i_m_stars>
2

>  <r_user_dG.exp>
-7.75184064198728

>  <ptp1b_ 23469 Relative Activity>
1.4

>  <ptp1b_ 23469 Relative Activity Error>
1.6

>  <Total Formal Charge>
-2

>  <Favorite_cresset>
false

>  <MW_cresset>
426.2

>  <#Atoms_cresset>
25

>  <SlogP_cresset>
3.8

>  <TPSA_cresset>
118.6

>  <Flexibility_cresset>
4

>  <Rof5_cresset>
0

>  <Confs_cresset>
0

>  <Poses_cresset>
0

$$$$
23475
  xed2sdf           3D
 
 42 44  0  0  0  0  0  0  0  0999 V2000
   41.4191   17.6003   11.9575 O   0  5  0  0  0  0  0  0  0  0  0  0
   40.5356   17.4939   12.8367 C   0  0  0  0  0  0  0  0  0  0  0  0
   39.4594   18.1303   12.8671 O   0  0  0  0  0  0  0  0  0  0  0  0
   40.7983   16.5073   13.9770 C   0  0  0  0  0  0  0  0  0  0  0  0
   42.0652   15.8703   13.8290 O   0  0  0  0  0  0  0  0  0  0  0  0
   42.3682   14.9604   14.7843 C   0  0  0  0  0  0  0  0  0  0  0  0
   41.8945   13.6150   14.7768 C   0  0  0  0  0  0  0  0  0  0  0  0
   40.7639   12.9503   13.3926 Br  0  0  0  0  0  0  0  0  0  0  0  0
   42.3354   12.8406   15.8190 C   0  0  0  0  0  0  0  0  0  0  0  0
   42.0585   11.4474   16.1564 C   0  0  0  0  0  0  0  0  0  0  0  0
   43.0853   10.6026   16.6322 C   0  0  0  0  0  0  0  0  0  0  0  0
   42.8174    9.2595   16.9591 C   0  0  0  0  0  0  0  0  0  0  0  0
   41.5159    8.7447   16.8124 C   0  0  0  0  0  0  0  0  0  0  0  0
   40.4830    9.5756   16.3374 C   0  0  0  0  0  0  0  0  0  0  0  0
   39.1988    9.0234   16.2104 N   0  0  0  0  0  0  0  0  0  0  0  0
   38.9954    7.6289   15.8731 C   0  0  0  0  0  0  0  0  0  0  0  0
   39.1357    7.3709   14.3719 C   0  0  0  0  0  0  0  0  0  0  0  0
   38.2665    6.1411   14.1220 C   0  0  0  0  0  0  0  0  0  0  0  0
   37.0665    6.3370   15.0501 C   0  0  0  0  0  0  0  0  0  0  0  0
   37.5932    7.1312   16.2550 C   0  0  0  0  0  0  0  0  0  0  0  0
   40.7558   10.9195   16.0117 C   0  0  0  0  0  0  0  0  0  0  0  0
   43.3865   13.7731   16.8529 S   0  0  0  0  0  0  0  0  0  0  0  0
   43.2022   15.2033   15.8529 C   0  0  0  0  0  0  0  0  0  0  0  0
   43.9482   16.4111   16.2795 C   0  0  0  0  0  0  0  0  0  0  0  0
   44.6544   16.3479   17.3096 O   0  5  0  0  0  0  0  0  0  0  0  0
   43.8504   17.4622   15.6071 O   0  0  0  0  0  0  0  0  0  0  0  0
   39.9832   15.7838   14.0366 H   0  0  0  0  0  0  0  0  0  0  0  0
   40.7969   17.0507   14.9222 H   0  0  0  0  0  0  0  0  0  0  0  0
   44.0910   10.9807   16.7453 H   0  0  0  0  0  0  0  0  0  0  0  0
   43.6120    8.6235   17.3205 H   0  0  0  0  0  0  0  0  0  0  0  0
   41.3230    7.7123   17.0655 H   0  0  0  0  0  0  0  0  0  0  0  0
   38.4086    9.5436   16.5632 H   0  0  0  0  0  0  0  0  0  0  0  0
   39.7459    7.0528   16.4141 H   0  0  0  0  0  0  0  0  0  0  0  0
   38.8366    8.2279   13.7684 H   0  0  0  0  0  0  0  0  0  0  0  0
   40.1741    7.1434   14.1309 H   0  0  0  0  0  0  0  0  0  0  0  0
   37.9338    6.1297   13.0841 H   0  0  0  0  0  0  0  0  0  0  0  0
   38.7950    5.2065   14.3099 H   0  0  0  0  0  0  0  0  0  0  0  0
   36.3000    6.9185   14.5378 H   0  0  0  0  0  0  0  0  0  0  0  0
   36.6125    5.3899   15.3419 H   0  0  0  0  0  0  0  0  0  0  0  0
   37.6410    6.5071   17.1474 H   0  0  0  0  0  0  0  0  0  0  0  0
   36.9279    7.9643   16.4817 H   0  0  0  0  0  0  0  0  0  0  0  0
   39.9765   11.5733   15.6517 H   0  0  0  0  0  0  0  0  0  0  0  0
  1  2  1  0
  2  3  2  0
  2  4  1  0
  4  5  1  0
  5  6  1  0
  6  7  1  0
  6 23  2  0
  7  8  1  0
  7  9  2  0
  9 10  1  0
  9 22  1  0
 10 11  2  0
 10 21  1  0
 11 12  1  0
 12 13  2  0
 13 14  1  0
 14 15  1  0
 14 21  2  0
 15 16  1  0
 16 17  1  0
 16 20  1  0
 17 18  1  0
 18 19  1  0
 19 20  1  0
 22 23  1  0
 23 24  1  0
 24 25  1  0
 24 26  2  0
  4 27  1  0
  4 28  1  0
 11 29  1  0
 12 30  1  0
 13 31  1  0
 15 32  1  0
 16 33  1  0
 17 34  1  0
 17 35  1  0
 18 36  1  0
 18 37  1  0
 19 38  1  0
 19 39  1  0
 20 40  1  0
 20 41  1  0
 21 42  1  0
M  CHG  2   1  -1  25  -1
M  END
>  <i_m_stars>
2

>  <r_user_dG.exp>
-8.71754822596421

>  <ptp1b_ 23469 Relative Activity>
-0.4

>  <ptp1b_ 23469 Relative Activity Error>
1.3

>  <Total Formal Charge>
-2

>  <Favorite_cresset>
false

>  <MW_cresset>
438.3

>  <#Atoms_cresset>
26

>  <SlogP_cresset>
4.8

>  <TPSA_cresset>
101.5

>  <Flexibility_cresset>
4.5

>  <Rof5_cresset>
0

>  <Confs_cresset>
0

>  <Poses_cresset>
0

$$$$
20667(2qbp)
  xed2sdf           3D
 
 60 63  0  0  0  0  0  0  0  0999 V2000
   41.2756   17.6314   11.7392 O   0  5  0  0  0  0  0  0  0  0  0  0
   40.5209   17.5798   12.7363 C   0  0  0  0  0  0  0  0  0  0  0  0
   39.5112   18.2966   12.9137 O   0  0  0  0  0  0  0  0  0  0  0  0
   40.8718   16.5948   13.8531 C   0  0  0  0  0  0  0  0  0  0  0  0
   42.1284   15.9801   13.6057 O   0  0  0  0  0  0  0  0  0  0  0  0
   42.5067   15.0961   14.5535 C   0  0  0  0  0  0  0  0  0  0  0  0
   42.1050   13.7638   14.6029 C   0  0  0  0  0  0  0  0  0  0  0  0
   41.0604   12.9703   13.2195 Br  0  0  0  0  0  0  0  0  0  0  0  0
   42.4736   13.0428   15.7309 C   0  0  0  0  0  0  0  0  0  0  0  0
   42.1345   11.6814   16.1187 C   0  0  0  0  0  0  0  0  0  0  0  0
   43.0991   10.8232   16.6550 C   0  0  0  0  0  0  0  0  0  0  0  0
   42.7730    9.5138   17.0059 C   0  0  0  0  0  0  0  0  0  0  0  0
   41.4767    9.0403   16.8075 C   0  0  0  0  0  0  0  0  0  0  0  0
   40.4943    9.8795   16.2662 C   0  0  0  0  0  0  0  0  0  0  0  0
   39.1733    9.4611   16.0229 N   0  0  0  0  0  0  0  0  0  0  0  0
   38.8803    8.0706   15.6816 C   0  0  0  0  0  0  0  0  0  0  0  0
   37.3499    7.8627   15.5714 C   0  0  0  0  0  0  0  0  0  0  0  0
   36.9746    6.4537   15.0726 C   0  0  0  0  0  0  0  0  0  0  0  0
   37.7104    6.1236   13.8434 N   0  0  0  0  0  0  0  0  0  0  0  0
   36.9761    5.2050   12.5892 S   0  0  0  0  0  0  0  0  0  0  0  0
   37.8364    5.3259   11.4042 O   0  0  0  0  0  0  0  0  0  0  0  0
   35.5548    5.5863   12.5166 O   0  0  0  0  0  0  0  0  0  0  0  0
   37.1037    3.4728   13.2183 C   0  0  0  0  0  0  0  0  0  0  0  0
   36.7136    2.5266   12.0998 C   0  0  0  0  0  0  0  0  0  0  0  0
   35.3715    2.1867   11.9063 C   0  0  0  0  0  0  0  0  0  0  0  0
   35.0075    1.3509   10.8514 C   0  0  0  0  0  0  0  0  0  0  0  0
   35.9839    0.8540    9.9894 C   0  0  0  0  0  0  0  0  0  0  0  0
   37.3260    1.1810   10.1830 C   0  0  0  0  0  0  0  0  0  0  0  0
   37.6914    2.0147   11.2396 C   0  0  0  0  0  0  0  0  0  0  0  0
   39.1749    6.2318   13.9220 C   0  0  0  0  0  0  0  0  0  0  0  0
   39.5890    7.6410   14.3716 C   0  0  0  0  0  0  0  0  0  0  0  0
   40.8302   11.1974   15.9487 C   0  0  0  0  0  0  0  0  0  0  0  0
   43.4982   14.0501   16.7177 S   0  0  0  0  0  0  0  0  0  0  0  0
   43.3217   15.4163   15.6304 C   0  0  0  0  0  0  0  0  0  0  0  0
   44.0307   16.6631   16.0010 C   0  0  0  0  0  0  0  0  0  0  0  0
   44.7160   16.6749   17.0464 O   0  5  0  0  0  0  0  0  0  0  0  0
   43.9282   17.6692   15.2634 O   0  0  0  0  0  0  0  0  0  0  0  0
   40.0886   15.8379   13.9235 H   0  0  0  0  0  0  0  0  0  0  0  0
   40.8969   17.1346   14.8012 H   0  0  0  0  0  0  0  0  0  0  0  0
   44.1104   11.1712   16.8083 H   0  0  0  0  0  0  0  0  0  0  0  0
   43.5244    8.8661   17.4327 H   0  0  0  0  0  0  0  0  0  0  0  0
   41.2432    8.0198   17.0746 H   0  0  0  0  0  0  0  0  0  0  0  0
   38.4441   10.1521   16.1264 H   0  0  0  0  0  0  0  0  0  0  0  0
   39.2589    7.4686   16.5076 H   0  0  0  0  0  0  0  0  0  0  0  0
   36.8766    8.0462   16.5360 H   0  0  0  0  0  0  0  0  0  0  0  0
   36.9348    8.6028   14.8873 H   0  0  0  0  0  0  0  0  0  0  0  0
   37.2043    5.6975   15.8233 H   0  0  0  0  0  0  0  0  0  0  0  0
   35.9002    6.3859   14.9017 H   0  0  0  0  0  0  0  0  0  0  0  0
   38.1271    3.3079   13.5550 H   0  0  0  0  0  0  0  0  0  0  0  0
   36.4608    3.3486   14.0877 H   0  0  0  0  0  0  0  0  0  0  0  0
   34.6091    2.5781   12.5626 H   0  0  0  0  0  0  0  0  0  0  0  0
   33.9697    1.0939   10.6989 H   0  0  0  0  0  0  0  0  0  0  0  0
   35.7040    0.2213    9.1599 H   0  0  0  0  0  0  0  0  0  0  0  0
   38.0756    0.8016    9.5040 H   0  0  0  0  0  0  0  0  0  0  0  0
   38.7321    2.2645   11.3849 H   0  0  0  0  0  0  0  0  0  0  0  0
   39.5253    5.4655   14.6134 H   0  0  0  0  0  0  0  0  0  0  0  0
   39.6129    5.9826   12.9555 H   0  0  0  0  0  0  0  0  0  0  0  0
   39.3499    8.3541   13.5828 H   0  0  0  0  0  0  0  0  0  0  0  0
   40.6706    7.6852   14.4991 H   0  0  0  0  0  0  0  0  0  0  0  0
   40.0955   11.8787   15.5559 H   0  0  0  0  0  0  0  0  0  0  0  0
  1  2  1  0
  2  3  2  0
  2  4  1  0
  4  5  1  0
  5  6  1  0
  6  7  1  0
  6 34  2  0
  7  8  1  0
  7  9  2  0
  9 10  1  0
  9 33  1  0
 10 11  2  0
 10 32  1  0
 11 12  1  0
 12 13  2  0
 13 14  1  0
 14 15  1  0
 14 32  2  0
 15 16  1  0
 16 17  1  0
 16 31  1  0
 17 18  1  0
 18 19  1  0
 19 20  1  0
 19 30  1  0
 20 21  2  0
 20 22  2  0
 20 23  1  0
 23 24  1  0
 24 25  2  0
 24 29  1  0
 25 26  1  0
 26 27  2  0
 27 28  1  0
 28 29  2  0
 30 31  1  0
 33 34  1  0
 34 35  1  0
 35 36  1  0
 35 37  2  0
  4 38  1  0
  4 39  1  0
 11 40  1  0
 12 41  1  0
 13 42  1  0
 15 43  1  0
 16 44  1  0
 17 45  1  0
 17 46  1  0
 18 47  1  0
 18 48  1  0
 23 49  1  0
 23 50  1  0
 25 51  1  0
 26 52  1  0
 27 53  1  0
 28 54  1  0
 29 55  1  0
 30 56  1  0
 30 57  1  0
 31 58  1  0
 31 59  1  0
 32 60  1  0
M  CHG  2   1  -1  36  -1
M  END
>  <i_m_stars>
3

>  <r_user_dG.exp>
-11.4230277784695

>  <ptp1b_ 23469 Relative Activity>
0.9

>  <ptp1b_ 23469 Relative Activity Error>
4.3

>  <Total Formal Charge>
-2

>  <Favorite_cresset>
false

>  <MW_cresset>
607.5

>  <#Atoms_cresset>
37

>  <SlogP_cresset>
4.8

>  <TPSA_cresset>
138.9

>  <Flexibility_cresset>
8

>  <Rof5_cresset>
1

>  <Confs_cresset>
0

>  <Poses_cresset>
0

$$$$
23477
  xed2sdf           3D
 
 43 45  0  0  0  0  0  0  0  0999 V2000
   41.2195   17.5887   11.9161 O   0  5  0  0  0  0  0  0  0  0  0  0
   40.3212   17.3517   12.7961 C   0  0  0  0  0  0  0  0  0  0  0  0
   39.2537   18.0306   12.9901 O   0  0  0  0  0  0  0  0  0  0  0  0
   40.5339   16.1549   13.6833 C   0  0  0  0  0  0  0  0  0  0  0  0
   41.8751   16.1373   14.2071 O   0  0  0  0  0  0  0  0  0  0  0  0
   42.2638   15.0891   14.9554 C   0  0  0  0  0  0  0  0  0  0  0  0
   41.6831   13.8150   14.9928 C   0  0  0  0  0  0  0  0  0  0  0  0
   40.2052   13.3012   13.9295 Br  0  0  0  0  0  0  0  0  0  0  0  0
   42.3039   12.9321   15.8617 C   0  0  0  0  0  0  0  0  0  0  0  0
   41.9657   11.5819   16.1356 C   0  0  0  0  0  0  0  0  0  0  0  0
   42.7534   10.7913   16.9823 C   0  0  0  0  0  0  0  0  0  0  0  0
   42.4381    9.4801   17.2156 C   0  0  0  0  0  0  0  0  0  0  0  0
   41.3272    8.9096   16.6278 C   0  0  0  0  0  0  0  0  0  0  0  0
   40.5047    9.6707   15.8025 C   0  0  0  0  0  0  0  0  0  0  0  0
   39.3506    9.1487   15.1978 N   0  0  0  0  0  0  0  0  0  0  0  0
   39.0257    7.7102   15.1926 C   0  0  0  0  0  0  0  0  0  0  0  0
   37.4989    7.5306   15.0618 C   0  0  0  0  0  0  0  0  0  0  0  0
   37.1754    6.0393   14.8509 C   0  0  0  0  0  0  0  0  0  0  0  0
   37.8433    5.5396   13.6757 O   0  0  0  0  0  0  0  0  0  0  0  0
   39.2785    5.6262   13.7829 C   0  0  0  0  0  0  0  0  0  0  0  0
   39.7276    7.0886   13.9669 C   0  0  0  0  0  0  0  0  0  0  0  0
   40.8363   10.9840   15.5704 C   0  0  0  0  0  0  0  0  0  0  0  0
   43.7039   13.6797   16.6856 S   0  0  0  0  0  0  0  0  0  0  0  0
   43.3569   15.1852   15.7944 C   0  0  0  0  0  0  0  0  0  0  0  0
   44.2580   16.2562   16.0756 C   0  0  0  0  0  0  0  0  0  0  0  0
   45.1910   16.0228   16.8920 O   0  5  0  0  0  0  0  0  0  0  0  0
   44.0423   17.3477   15.4796 O   0  0  0  0  0  0  0  0  0  0  0  0
   40.3396   15.1779   13.0154 H   0  0  0  0  0  0  0  0  0  0  0  0
   39.7492   16.1871   14.5906 H   0  0  0  0  0  0  0  0  0  0  0  0
   43.5619   11.1882   17.4167 H   0  0  0  0  0  0  0  0  0  0  0  0
   43.0179    8.9306   17.8165 H   0  0  0  0  0  0  0  0  0  0  0  0
   41.1163    7.9507   16.8059 H   0  0  0  0  0  0  0  0  0  0  0  0
   38.6718    9.7040   15.1130 H   0  0  0  0  0  0  0  0  0  0  0  0
   39.3466    7.1391   16.1963 H   0  0  0  0  0  0  0  0  0  0  0  0
   36.9606    7.9271   16.0581 H   0  0  0  0  0  0  0  0  0  0  0  0
   37.0999    8.1547   14.1178 H   0  0  0  0  0  0  0  0  0  0  0  0
   35.9897    5.9091   14.7190 H   0  0  0  0  0  0  0  0  0  0  0  0
   37.5335    5.4161   15.8116 H   0  0  0  0  0  0  0  0  0  0  0  0
   39.7729    5.1922   12.7792 H   0  0  0  0  0  0  0  0  0  0  0  0
   39.6568    4.9768   14.7182 H   0  0  0  0  0  0  0  0  0  0  0  0
   40.9179    7.1365   14.1111 H   0  0  0  0  0  0  0  0  0  0  0  0
   39.4224    7.7165   12.9910 H   0  0  0  0  0  0  0  0  0  0  0  0
   40.2513   11.5307   14.9713 H   0  0  0  0  0  0  0  0  0  0  0  0
  1  2  1  0
  2  3  2  0
  2  4  1  0
  4  5  1  0
  5  6  1  0
  6  7  1  0
  6 24  2  0
  7  8  1  0
  7  9  2  0
  9 10  1  0
  9 23  1  0
 10 11  2  0
 10 22  1  0
 11 12  1  0
 12 13  2  0
 13 14  1  0
 14 15  1  0
 14 22  2  0
 15 16  1  0
 16 17  1  0
 16 21  1  0
 17 18  1  0
 18 19  1  0
 19 20  1  0
 20 21  1  0
 23 24  1  0
 24 25  1  0
 25 26  1  0
 25 27  2  0
  4 28  1  0
  4 29  1  0
 11 30  1  0
 12 31  1  0
 13 32  1  0
 15 33  1  0
 16 34  1  0
 17 35  1  0
 17 36  1  0
 18 37  1  0
 18 38  1  0
 20 39  1  0
 20 40  1  0
 21 41  1  0
 21 42  1  0
 22 43  1  0
M  CHG  2   1  -1  26  -1
M  END
>  <i_m_stars>
2

>  <r_user_dG.exp>
-8.85316590670652

>  <ptp1b_ 23469 Relative Activity>
-0.4

>  <ptp1b_ 23469 Relative Activity Error>
1.4

>  <Total Formal Charge>
-2

>  <Favorite_cresset>
false

>  <MW_cresset>
454.3

>  <#Atoms_cresset>
27

>  <SlogP_cresset>
4

>  <TPSA_cresset>
110.8

>  <Flexibility_cresset>
5

>  <Rof5_cresset>
0

>  <Confs_cresset>
0

>  <Poses_cresset>
0

$$$$
23471
  xed2sdf           3D
 
 35 36  0  0  0  0  0  0  0  0999 V2000
   37.0448    9.0699   15.8294 C   0  0  0  0  0  0  0  0  0  0  0  0
   37.5083    8.2225   16.8671 O   0  0  0  0  0  0  0  0  0  0  0  0
   38.8187    8.1726   17.1493 C   0  0  0  0  0  0  0  0  0  0  0  0
   39.3752    7.2244   17.7047 O   0  0  0  0  0  0  0  0  0  0  0  0
   39.3913    9.3618   16.7178 N   0  0  0  0  0  0  0  0  0  0  0  0
   40.7401    9.7888   16.8448 C   0  0  0  0  0  0  0  0  0  0  0  0
   41.7792    8.9724   17.3118 C   0  0  0  0  0  0  0  0  0  0  0  0
   43.0859    9.4573   17.3660 C   0  0  0  0  0  0  0  0  0  0  0  0
   43.3652   10.7569   16.9470 C   0  0  0  0  0  0  0  0  0  0  0  0
   42.3443   11.5877   16.4784 C   0  0  0  0  0  0  0  0  0  0  0  0
   42.6245   12.9340   16.0147 C   0  0  0  0  0  0  0  0  0  0  0  0
   43.6360   14.0254   16.9149 S   0  0  0  0  0  0  0  0  0  0  0  0
   43.3652   15.3253   15.7666 C   0  0  0  0  0  0  0  0  0  0  0  0
   44.0464   16.6111   16.0505 C   0  0  0  0  0  0  0  0  0  0  0  0
   44.7740   16.6941   17.0640 O   0  5  0  0  0  0  0  0  0  0  0  0
   43.8841   17.5767   15.2709 O   0  0  0  0  0  0  0  0  0  0  0  0
   42.5145   14.9212   14.7395 C   0  0  0  0  0  0  0  0  0  0  0  0
   42.0409   15.7421   13.7728 O   0  0  0  0  0  0  0  0  0  0  0  0
   40.7605   16.3124   14.0330 C   0  0  0  0  0  0  0  0  0  0  0  0
   40.3270   17.2432   12.8986 C   0  0  0  0  0  0  0  0  0  0  0  0
   39.2130   17.8008   13.0106 O   0  5  0  0  0  0  0  0  0  0  0  0
   41.1154   17.3805   11.9374 O   0  0  0  0  0  0  0  0  0  0  0  0
   42.1856   13.5746   14.8668 C   0  0  0  0  0  0  0  0  0  0  0  0
   41.1964   12.6902   13.4976 Br  0  0  0  0  0  0  0  0  0  0  0  0
   41.0347   11.0942   16.4477 C   0  0  0  0  0  0  0  0  0  0  0  0
   35.9619    8.9862   15.7386 H   0  0  0  0  0  0  0  0  0  0  0  0
   37.2894   10.1118   16.0395 H   0  0  0  0  0  0  0  0  0  0  0  0
   37.4891    8.7922   14.8727 H   0  0  0  0  0  0  0  0  0  0  0  0
   38.7407   10.0195   16.3138 H   0  0  0  0  0  0  0  0  0  0  0  0
   41.6050    7.9561   17.6278 H   0  0  0  0  0  0  0  0  0  0  0  0
   43.8812    8.8223   17.7276 H   0  0  0  0  0  0  0  0  0  0  0  0
   44.3841   11.1146   16.9778 H   0  0  0  0  0  0  0  0  0  0  0  0
   40.0358   15.5022   14.1145 H   0  0  0  0  0  0  0  0  0  0  0  0
   40.7356   16.8455   14.9852 H   0  0  0  0  0  0  0  0  0  0  0  0
   40.2344   11.7412   16.1190 H   0  0  0  0  0  0  0  0  0  0  0  0
  1  2  1  0
  2  3  1  0
  3  4  2  0
  3  5  1  0
  5  6  1  0
  6  7  2  0
  6 25  1  0
  7  8  1  0
  8  9  2  0
  9 10  1  0
 10 11  1  0
 10 25  2  0
 11 12  1  0
 11 23  2  0
 12 13  1  0
 13 14  1  0
 13 17  2  0
 14 15  1  0
 14 16  2  0
 17 18  1  0
 17 23  1  0
 18 19  1  0
 19 20  1  0
 20 21  1  0
 20 22  2  0
 23 24  1  0
  1 26  1  0
  1 27  1  0
  1 28  1  0
  5 29  1  0
  7 30  1  0
  8 31  1  0
  9 32  1  0
 19 33  1  0
 19 34  1  0
 25 35  1  0
M  CHG  2  15  -1  21  -1
M  END
>  <i_m_stars>
2

>  <r_user_dG.exp>
-7.75184064198728

>  <ptp1b_ 23469 Relative Activity>
1.3

>  <ptp1b_ 23469 Relative Activity Error>
1.6

>  <Total Formal Charge>
-2

>  <Favorite_cresset>
false

>  <MW_cresset>
428.2

>  <#Atoms_cresset>
25

>  <SlogP_cresset>
3.6

>  <TPSA_cresset>
127.8

>  <Flexibility_cresset>
3.5

>  <Rof5_cresset>
0

>  <Confs_cresset>
0

>  <Poses_cresset>
0

$$$$
23485
  xed2sdf           3D
 
 63 66  0  0  0  0  0  0  0  0999 V2000
   41.3040   13.2036   13.4628 C   0  0  0  0  0  0  0  0  0  0  0  0
   42.1050   13.7638   14.6029 C   0  0  0  0  0  0  0  0  0  0  0  0
   42.5067   15.0961   14.5535 C   0  0  0  0  0  0  0  0  0  0  0  0
   42.1497   15.9428   13.5632 O   0  0  0  0  0  0  0  0  0  0  0  0
   41.1085   16.8483   13.9109 C   0  0  0  0  0  0  0  0  0  0  0  0
   40.5926   17.5867   12.6738 C   0  0  0  0  0  0  0  0  0  0  0  0
   41.2437   17.4781   11.6105 O   0  5  0  0  0  0  0  0  0  0  0  0
   39.5308   18.2342   12.8065 O   0  0  0  0  0  0  0  0  0  0  0  0
   43.3217   15.4163   15.6304 C   0  0  0  0  0  0  0  0  0  0  0  0
   44.0363   16.6612   16.0003 C   0  0  0  0  0  0  0  0  0  0  0  0
   44.7190   16.6734   17.0477 O   0  5  0  0  0  0  0  0  0  0  0  0
   43.9409   17.6673   15.2623 O   0  0  0  0  0  0  0  0  0  0  0  0
   43.4982   14.0501   16.7177 S   0  0  0  0  0  0  0  0  0  0  0  0
   42.4736   13.0428   15.7309 C   0  0  0  0  0  0  0  0  0  0  0  0
   42.1345   11.6814   16.1187 C   0  0  0  0  0  0  0  0  0  0  0  0
   43.0991   10.8232   16.6550 C   0  0  0  0  0  0  0  0  0  0  0  0
   42.7730    9.5138   17.0059 C   0  0  0  0  0  0  0  0  0  0  0  0
   41.4767    9.0403   16.8075 C   0  0  0  0  0  0  0  0  0  0  0  0
   40.4943    9.8795   16.2662 C   0  0  0  0  0  0  0  0  0  0  0  0
   39.1733    9.4611   16.0229 N   0  0  0  0  0  0  0  0  0  0  0  0
   38.8803    8.0706   15.6816 C   0  0  0  0  0  0  0  0  0  0  0  0
   37.3499    7.8627   15.5714 C   0  0  0  0  0  0  0  0  0  0  0  0
   36.9746    6.4537   15.0726 C   0  0  0  0  0  0  0  0  0  0  0  0
   37.7104    6.1236   13.8434 N   0  0  0  0  0  0  0  0  0  0  0  0
   36.9761    5.2050   12.5892 S   0  0  0  0  0  0  0  0  0  0  0  0
   37.8364    5.3259   11.4042 O   0  0  0  0  0  0  0  0  0  0  0  0
   35.5548    5.5863   12.5166 O   0  0  0  0  0  0  0  0  0  0  0  0
   37.1037    3.4728   13.2183 C   0  0  0  0  0  0  0  0  0  0  0  0
   36.7137    2.5266   12.0998 C   0  0  0  0  0  0  0  0  0  0  0  0
   35.3715    2.1867   11.9063 C   0  0  0  0  0  0  0  0  0  0  0  0
   35.0075    1.3509   10.8514 C   0  0  0  0  0  0  0  0  0  0  0  0
   35.9839    0.8540    9.9894 C   0  0  0  0  0  0  0  0  0  0  0  0
   37.3260    1.1810   10.1830 C   0  0  0  0  0  0  0  0  0  0  0  0
   37.6914    2.0147   11.2396 C   0  0  0  0  0  0  0  0  0  0  0  0
   39.1749    6.2318   13.9220 C   0  0  0  0  0  0  0  0  0  0  0  0
   39.5890    7.6410   14.3716 C   0  0  0  0  0  0  0  0  0  0  0  0
   40.8302   11.1974   15.9487 C   0  0  0  0  0  0  0  0  0  0  0  0
   40.7756   13.9858   12.9180 H   0  0  0  0  0  0  0  0  0  0  0  0
   41.9462   12.6879   12.7491 H   0  0  0  0  0  0  0  0  0  0  0  0
   40.5530   12.4943   13.8108 H   0  0  0  0  0  0  0  0  0  0  0  0
   40.2650   16.3316   14.3730 H   0  0  0  0  0  0  0  0  0  0  0  0
   41.4848   17.5702   14.6364 H   0  0  0  0  0  0  0  0  0  0  0  0
   44.1102   11.1712   16.8072 H   0  0  0  0  0  0  0  0  0  0  0  0
   43.5249    8.8662   17.4322 H   0  0  0  0  0  0  0  0  0  0  0  0
   41.2420    8.0208   17.0774 H   0  0  0  0  0  0  0  0  0  0  0  0
   38.4546   10.1706   16.0360 H   0  0  0  0  0  0  0  0  0  0  0  0
   39.2589    7.4686   16.5076 H   0  0  0  0  0  0  0  0  0  0  0  0
   36.8766    8.0462   16.5360 H   0  0  0  0  0  0  0  0  0  0  0  0
   36.9348    8.6028   14.8873 H   0  0  0  0  0  0  0  0  0  0  0  0
   37.2043    5.6975   15.8233 H   0  0  0  0  0  0  0  0  0  0  0  0
   35.9002    6.3859   14.9017 H   0  0  0  0  0  0  0  0  0  0  0  0
   38.1418    3.3069   13.5060 H   0  0  0  0  0  0  0  0  0  0  0  0
   36.4999    3.3814   14.1208 H   0  0  0  0  0  0  0  0  0  0  0  0
   34.6108    2.5601   12.5771 H   0  0  0  0  0  0  0  0  0  0  0  0
   33.9697    1.0902   10.7043 H   0  0  0  0  0  0  0  0  0  0  0  0
   35.7021    0.2157    9.1651 H   0  0  0  0  0  0  0  0  0  0  0  0
   38.0787    0.7895    9.5148 H   0  0  0  0  0  0  0  0  0  0  0  0
   38.7326    2.2586   11.3919 H   0  0  0  0  0  0  0  0  0  0  0  0
   39.5253    5.4655   14.6134 H   0  0  0  0  0  0  0  0  0  0  0  0
   39.6129    5.9826   12.9555 H   0  0  0  0  0  0  0  0  0  0  0  0
   39.3499    8.3541   13.5828 H   0  0  0  0  0  0  0  0  0  0  0  0
   40.6706    7.6852   14.4991 H   0  0  0  0  0  0  0  0  0  0  0  0
   40.0951   11.8772   15.5562 H   0  0  0  0  0  0  0  0  0  0  0  0
  1  2  1  0
  2  3  1  0
  2 14  2  0
  3  4  1  0
  3  9  2  0
  4  5  1  0
  5  6  1  0
  6  7  1  0
  6  8  2  0
  9 10  1  0
  9 13  1  0
 10 11  1  0
 10 12  2  0
 13 14  1  0
 14 15  1  0
 15 16  2  0
 15 37  1  0
 16 17  1  0
 17 18  2  0
 18 19  1  0
 19 20  1  0
 19 37  2  0
 20 21  1  0
 21 22  1  0
 21 36  1  0
 22 23  1  0
 23 24  1  0
 24 25  1  0
 24 35  1  0
 25 26  2  0
 25 27  2  0
 25 28  1  0
 28 29  1  0
 29 30  2  0
 29 34  1  0
 30 31  1  0
 31 32  2  0
 32 33  1  0
 33 34  2  0
 35 36  1  0
  1 38  1  0
  1 39  1  0
  1 40  1  0
  5 41  1  0
  5 42  1  0
 16 43  1  0
 17 44  1  0
 18 45  1  0
 20 46  1  0
 21 47  1  0
 22 48  1  0
 22 49  1  0
 23 50  1  0
 23 51  1  0
 28 52  1  0
 28 53  1  0
 30 54  1  0
 31 55  1  0
 32 56  1  0
 33 57  1  0
 34 58  1  0
 35 59  1  0
 35 60  1  0
 36 61  1  0
 36 62  1  0
 37 63  1  0
M  CHG  2   7  -1  11  -1
M  END
>  <i_m_stars>
2

>  <r_user_dG.exp>
-11.0135614094467

>  <ptp1b_ 23469 Relative Activity>
0.3

>  <ptp1b_ 23469 Relative Activity Error>
4.3

>  <Total Formal Charge>
-2

>  <Favorite_cresset>
false

>  <MW_cresset>
542.6

>  <#Atoms_cresset>
37

>  <SlogP_cresset>
4.3

>  <TPSA_cresset>
138.9

>  <Flexibility_cresset>
8

>  <Rof5_cresset>
1

>  <Confs_cresset>
0

>  <Poses_cresset>
0

$$$$
23467
  xed2sdf           3D
 
 31 32  0  0  0  0  0  0  0  0999 V2000
   38.8521    7.7940   16.4845 C   0  0  0  0  0  0  0  0  0  0  0  0
   39.1640    9.1368   16.1433 O   0  0  0  0  0  0  0  0  0  0  0  0
   40.4581    9.5713   16.3352 C   0  0  0  0  0  0  0  0  0  0  0  0
   41.4772    8.7481   16.8518 C   0  0  0  0  0  0  0  0  0  0  0  0
   42.7760    9.2630   17.0197 C   0  0  0  0  0  0  0  0  0  0  0  0
   43.0552   10.5988   16.6723 C   0  0  0  0  0  0  0  0  0  0  0  0
   42.0423   11.4358   16.1546 C   0  0  0  0  0  0  0  0  0  0  0  0
   42.3308   12.8213   15.7959 C   0  0  0  0  0  0  0  0  0  0  0  0
   43.3748   13.7665   16.8257 S   0  0  0  0  0  0  0  0  0  0  0  0
   43.2102   15.1796   15.7984 C   0  0  0  0  0  0  0  0  0  0  0  0
   43.9500   16.3947   16.2107 C   0  0  0  0  0  0  0  0  0  0  0  0
   43.8582   17.4209   15.5026 O   0  5  0  0  0  0  0  0  0  0  0  0
   44.6455   16.3657   17.2508 O   0  0  0  0  0  0  0  0  0  0  0  0
   42.3876   14.9221   14.7244 C   0  0  0  0  0  0  0  0  0  0  0  0
   42.0603   15.8348   13.7845 O   0  0  0  0  0  0  0  0  0  0  0  0
   40.8300   16.5041   14.0279 C   0  0  0  0  0  0  0  0  0  0  0  0
   40.5470   17.5475   12.9448 C   0  0  0  0  0  0  0  0  0  0  0  0
   41.4120   17.7291   12.0588 O   0  5  0  0  0  0  0  0  0  0  0  0
   39.4649   18.1683   13.0342 O   0  0  0  0  0  0  0  0  0  0  0  0
   41.9066   13.5794   14.7351 C   0  0  0  0  0  0  0  0  0  0  0  0
   40.7855   12.9055   13.3482 Br  0  0  0  0  0  0  0  0  0  0  0  0
   40.7422   10.9077   15.9890 C   0  0  0  0  0  0  0  0  0  0  0  0
   37.7989    7.6056   16.2764 H   0  0  0  0  0  0  0  0  0  0  0  0
   39.4361    7.0866   15.8943 H   0  0  0  0  0  0  0  0  0  0  0  0
   39.0174    7.6034   17.5457 H   0  0  0  0  0  0  0  0  0  0  0  0
   41.2913    7.7209   17.1261 H   0  0  0  0  0  0  0  0  0  0  0  0
   43.5590    8.6323   17.4140 H   0  0  0  0  0  0  0  0  0  0  0  0
   44.0580   10.9795   16.7993 H   0  0  0  0  0  0  0  0  0  0  0  0
   40.0173   15.7767   14.0510 H   0  0  0  0  0  0  0  0  0  0  0  0
   40.8450   17.0109   14.9945 H   0  0  0  0  0  0  0  0  0  0  0  0
   39.9464   11.5255   15.5989 H   0  0  0  0  0  0  0  0  0  0  0  0
  1  2  1  0
  2  3  1  0
  3  4  2  0
  3 22  1  0
  4  5  1  0
  5  6  2  0
  6  7  1  0
  7  8  1  0
  7 22  2  0
  8  9  1  0
  8 20  2  0
  9 10  1  0
 10 11  1  0
 10 14  2  0
 11 12  1  0
 11 13  2  0
 14 15  1  0
 14 20  1  0
 15 16  1  0
 16 17  1  0
 17 18  1  0
 17 19  2  0
 20 21  1  0
  1 23  1  0
  1 24  1  0
  1 25  1  0
  4 26  1  0
  5 27  1  0
  6 28  1  0
 16 29  1  0
 16 30  1  0
 22 31  1  0
M  CHG  2  12  -1  18  -1
M  END
>  <i_m_stars>
2

>  <r_user_dG.exp>
-7.34237427296449

>  <ptp1b_ 23469 Relative Activity>
1.2

>  <ptp1b_ 23469 Relative Activity Error>
1.4

>  <Total Formal Charge>
-2

>  <Favorite_cresset>
false

>  <MW_cresset>
385.2

>  <#Atoms_cresset>
22

>  <SlogP_cresset>
3.4

>  <TPSA_cresset>
98.7

>  <Flexibility_cresset>
3.3

>  <Rof5_cresset>
0

>  <Confs_cresset>
0

>  <Poses_cresset>
0

$$$$
23466
  xed2sdf           3D
 
 29 30  0  0  0  0  0  0  0  0999 V2000
   39.2136    9.0772   15.8610 N   0  0  0  0  0  0  0  0  0  0  0  0
   40.4829    9.5699   16.1594 C   0  0  0  0  0  0  0  0  0  0  0  0
   41.4815    8.7321   16.6725 C   0  0  0  0  0  0  0  0  0  0  0  0
   42.7506    9.2417   16.9424 C   0  0  0  0  0  0  0  0  0  0  0  0
   43.0417   10.5800   16.6715 C   0  0  0  0  0  0  0  0  0  0  0  0
   42.0577   11.4350   16.1601 C   0  0  0  0  0  0  0  0  0  0  0  0
   42.3473   12.8247   15.8292 C   0  0  0  0  0  0  0  0  0  0  0  0
   43.4366   13.7822   16.8006 S   0  0  0  0  0  0  0  0  0  0  0  0
   43.2082   15.1991   15.7938 C   0  0  0  0  0  0  0  0  0  0  0  0
   43.9543   16.4193   16.1786 C   0  0  0  0  0  0  0  0  0  0  0  0
   43.8122   17.4512   15.4873 O   0  5  0  0  0  0  0  0  0  0  0  0
   44.7036   16.3893   17.1807 O   0  0  0  0  0  0  0  0  0  0  0  0
   42.3247   14.9326   14.7526 C   0  0  0  0  0  0  0  0  0  0  0  0
   41.9652   15.8350   13.8147 O   0  0  0  0  0  0  0  0  0  0  0  0
   40.7723   16.5454   14.1198 C   0  0  0  0  0  0  0  0  0  0  0  0
   40.4157   17.5289   13.0030 C   0  0  0  0  0  0  0  0  0  0  0  0
   39.4252   18.2758   13.1672 O   0  5  0  0  0  0  0  0  0  0  0  0
   41.1620   17.5310   11.9993 O   0  0  0  0  0  0  0  0  0  0  0  0
   41.8775   13.6145   14.7795 C   0  0  0  0  0  0  0  0  0  0  0  0
   40.7113   12.9632   13.4193 Br  0  0  0  0  0  0  0  0  0  0  0  0
   40.7764   10.9164   15.9496 C   0  0  0  0  0  0  0  0  0  0  0  0
   38.9878    8.0990   15.9708 H   0  0  0  0  0  0  0  0  0  0  0  0
   38.5005    9.6676   15.4573 H   0  0  0  0  0  0  0  0  0  0  0  0
   41.2761    7.6884   16.8616 H   0  0  0  0  0  0  0  0  0  0  0  0
   43.5121    8.6004   17.3610 H   0  0  0  0  0  0  0  0  0  0  0  0
   44.0397   10.9502   16.8547 H   0  0  0  0  0  0  0  0  0  0  0  0
   39.9326   15.8609   14.2528 H   0  0  0  0  0  0  0  0  0  0  0  0
   40.9025   17.0914   15.0552 H   0  0  0  0  0  0  0  0  0  0  0  0
   39.9956   11.5864   15.6198 H   0  0  0  0  0  0  0  0  0  0  0  0
  1  2  1  0
  2  3  2  0
  2 21  1  0
  3  4  1  0
  4  5  2  0
  5  6  1  0
  6  7  1  0
  6 21  2  0
  7  8  1  0
  7 19  2  0
  8  9  1  0
  9 10  1  0
  9 13  2  0
 10 11  1  0
 10 12  2  0
 13 14  1  0
 13 19  1  0
 14 15  1  0
 15 16  1  0
 16 17  1  0
 16 18  2  0
 19 20  1  0
  1 22  1  0
  1 23  1  0
  3 24  1  0
  4 25  1  0
  5 26  1  0
 15 27  1  0
 15 28  1  0
 21 29  1  0
M  CHG  2  11  -1  17  -1
M  END
>  <i_m_stars>
2

>  <r_user_dG.exp>
-7.84784627805605

>  <ptp1b_ 23469 Relative Activity>
0.9

>  <ptp1b_ 23469 Relative Activity Error>
1.2

>  <Total Formal Charge>
-2

>  <Favorite_cresset>
false

>  <MW_cresset>
370.2

>  <#Atoms_cresset>
21

>  <SlogP_cresset>
3

>  <TPSA_cresset>
115.5

>  <Flexibility_cresset>
2.8

>  <Rof5_cresset>
0

>  <Confs_cresset>
0

>  <Poses_cresset>
0

$$$$
23476
  xed2sdf           3D
 
 48 50  0  0  0  0  0  0  0  0999 V2000
   41.4867   17.7482   12.0673 O   0  5  0  0  0  0  0  0  0  0  0  0
   40.5664   17.5761   12.8964 C   0  0  0  0  0  0  0  0  0  0  0  0
   39.4855   18.2052   12.9246 O   0  0  0  0  0  0  0  0  0  0  0  0
   40.7845   16.5110   13.9735 C   0  0  0  0  0  0  0  0  0  0  0  0
   42.0386   15.8543   13.8050 O   0  0  0  0  0  0  0  0  0  0  0  0
   42.3405   14.9357   14.7523 C   0  0  0  0  0  0  0  0  0  0  0  0
   41.9226   13.5730   14.6979 C   0  0  0  0  0  0  0  0  0  0  0  0
   40.9097   12.8861   13.2359 Br  0  0  0  0  0  0  0  0  0  0  0  0
   42.2783   12.8150   15.7837 C   0  0  0  0  0  0  0  0  0  0  0  0
   42.0207   11.4118   16.0935 C   0  0  0  0  0  0  0  0  0  0  0  0
   43.0285   10.6016   16.6613 C   0  0  0  0  0  0  0  0  0  0  0  0
   42.7790    9.2486   16.9615 C   0  0  0  0  0  0  0  0  0  0  0  0
   41.5154    8.6893   16.6954 C   0  0  0  0  0  0  0  0  0  0  0  0
   40.5019    9.4854   16.1279 C   0  0  0  0  0  0  0  0  0  0  0  0
   39.2615    8.8686   15.8845 N   0  0  0  0  0  0  0  0  0  0  0  0
   39.0017    7.4432   15.9074 C   0  0  0  0  0  0  0  0  0  0  0  0
   37.8800    7.0952   16.9015 C   0  0  0  0  0  0  0  0  0  0  0  0
   37.8402    5.6235   17.3408 C   0  0  0  0  0  0  0  0  0  0  0  0
   37.7134    4.6087   16.1910 C   0  0  0  0  0  0  0  0  0  0  0  0
   39.0143    4.4568   15.3854 C   0  0  0  0  0  0  0  0  0  0  0  0
   39.2002    5.4613   14.2336 C   0  0  0  0  0  0  0  0  0  0  0  0
   38.7313    6.9046   14.4928 C   0  0  0  0  0  0  0  0  0  0  0  0
   40.7562   10.8392   15.8293 C   0  0  0  0  0  0  0  0  0  0  0  0
   43.1753   13.7863   16.9220 S   0  0  0  0  0  0  0  0  0  0  0  0
   43.0446   15.2094   15.9038 C   0  0  0  0  0  0  0  0  0  0  0  0
   43.6741   16.4501   16.4156 C   0  0  0  0  0  0  0  0  0  0  0  0
   44.2669   16.4128   17.5159 O   0  5  0  0  0  0  0  0  0  0  0  0
   43.6044   17.4989   15.7361 O   0  0  0  0  0  0  0  0  0  0  0  0
   39.9941   15.7641   13.8960 H   0  0  0  0  0  0  0  0  0  0  0  0
   40.6889   16.9590   14.9642 H   0  0  0  0  0  0  0  0  0  0  0  0
   44.0021   11.0173   16.8767 H   0  0  0  0  0  0  0  0  0  0  0  0
   43.5573    8.6409   17.3989 H   0  0  0  0  0  0  0  0  0  0  0  0
   41.3381    7.6508   16.9346 H   0  0  0  0  0  0  0  0  0  0  0  0
   38.4969    9.4598   15.5920 H   0  0  0  0  0  0  0  0  0  0  0  0
   39.9194    6.9819   16.2723 H   0  0  0  0  0  0  0  0  0  0  0  0
   38.0023    7.7112   17.7924 H   0  0  0  0  0  0  0  0  0  0  0  0
   36.9147    7.3799   16.4828 H   0  0  0  0  0  0  0  0  0  0  0  0
   38.7221    5.3947   17.9391 H   0  0  0  0  0  0  0  0  0  0  0  0
   36.9923    5.4937   18.0133 H   0  0  0  0  0  0  0  0  0  0  0  0
   37.4767    3.6403   16.6318 H   0  0  0  0  0  0  0  0  0  0  0  0
   36.8729    4.8501   15.5405 H   0  0  0  0  0  0  0  0  0  0  0  0
   39.8635    4.5619   16.0606 H   0  0  0  0  0  0  0  0  0  0  0  0
   39.0851    3.4400   14.9992 H   0  0  0  0  0  0  0  0  0  0  0  0
   40.2534    5.4934   13.9545 H   0  0  0  0  0  0  0  0  0  0  0  0
   38.6832    5.0699   13.3574 H   0  0  0  0  0  0  0  0  0  0  0  0
   37.6678    6.9895   14.2695 H   0  0  0  0  0  0  0  0  0  0  0  0
   39.2244    7.5514   13.7672 H   0  0  0  0  0  0  0  0  0  0  0  0
   40.0032   11.4699   15.3891 H   0  0  0  0  0  0  0  0  0  0  0  0
  1  2  1  0
  2  3  2  0
  2  4  1  0
  4  5  1  0
  5  6  1  0
  6  7  1  0
  6 25  2  0
  7  8  1  0
  7  9  2  0
  9 10  1  0
  9 24  1  0
 10 11  2  0
 10 23  1  0
 11 12  1  0
 12 13  2  0
 13 14  1  0
 14 15  1  0
 14 23  2  0
 15 16  1  0
 16 17  1  0
 16 22  1  0
 17 18  1  0
 18 19  1  0
 19 20  1  0
 20 21  1  0
 21 22  1  0
 24 25  1  0
 25 26  1  0
 26 27  1  0
 26 28  2  0
  4 29  1  0
  4 30  1  0
 11 31  1  0
 12 32  1  0
 13 33  1  0
 15 34  1  0
 16 35  1  0
 17 36  1  0
 17 37  1  0
 18 38  1  0
 18 39  1  0
 19 40  1  0
 19 41  1  0
 20 42  1  0
 20 43  1  0
 21 44  1  0
 21 45  1  0
 22 46  1  0
 22 47  1  0
 23 48  1  0
M  CHG  2   1  -1  27  -1
M  END
>  <i_m_stars>
2

>  <r_user_dG.exp>
-9.4138211030936

>  <ptp1b_ 23469 Relative Activity>
-1.1

>  <ptp1b_ 23469 Relative Activity Error>
1.5

>  <Total Formal Charge>
-2

>  <Favorite_cresset>
false

>  <MW_cresset>
466.3

>  <#Atoms_cresset>
28

>  <SlogP_cresset>
5.5

>  <TPSA_cresset>
101.5

>  <Flexibility_cresset>
6.1

>  <Rof5_cresset>
1

>  <Confs_cresset>
0

>  <Poses_cresset>
0

$$$$
23484
  xed2sdf           3D
 
 60 63  0  0  0  0  0  0  0  0999 V2000
   39.4259   18.2063   12.7913 O   0  5  0  0  0  0  0  0  0  0  0  0
   40.5386   17.6364   12.7356 C   0  0  0  0  0  0  0  0  0  0  0  0
   41.3997   17.8212   11.8476 O   0  0  0  0  0  0  0  0  0  0  0  0
   40.8943   16.6402   13.8461 C   0  0  0  0  0  0  0  0  0  0  0  0
   42.1348   15.9824   13.6021 O   0  0  0  0  0  0  0  0  0  0  0  0
   42.5067   15.0961   14.5535 C   0  0  0  0  0  0  0  0  0  0  0  0
   42.1050   13.7638   14.6029 C   0  0  0  0  0  0  0  0  0  0  0  0
   42.4736   13.0428   15.7309 C   0  0  0  0  0  0  0  0  0  0  0  0
   42.1345   11.6814   16.1187 C   0  0  0  0  0  0  0  0  0  0  0  0
   43.0991   10.8232   16.6550 C   0  0  0  0  0  0  0  0  0  0  0  0
   42.7730    9.5138   17.0059 C   0  0  0  0  0  0  0  0  0  0  0  0
   41.4767    9.0403   16.8075 C   0  0  0  0  0  0  0  0  0  0  0  0
   40.4943    9.8795   16.2662 C   0  0  0  0  0  0  0  0  0  0  0  0
   39.1733    9.4611   16.0229 N   0  0  0  0  0  0  0  0  0  0  0  0
   38.8803    8.0706   15.6816 C   0  0  0  0  0  0  0  0  0  0  0  0
   37.3499    7.8627   15.5714 C   0  0  0  0  0  0  0  0  0  0  0  0
   36.9746    6.4537   15.0726 C   0  0  0  0  0  0  0  0  0  0  0  0
   37.7104    6.1236   13.8434 N   0  0  0  0  0  0  0  0  0  0  0  0
   36.9761    5.2050   12.5892 S   0  0  0  0  0  0  0  0  0  0  0  0
   37.8363    5.3259   11.4042 O   0  0  0  0  0  0  0  0  0  0  0  0
   35.5548    5.5863   12.5166 O   0  0  0  0  0  0  0  0  0  0  0  0
   37.1037    3.4728   13.2183 C   0  0  0  0  0  0  0  0  0  0  0  0
   36.7137    2.5266   12.0998 C   0  0  0  0  0  0  0  0  0  0  0  0
   35.3714    2.1867   11.9063 C   0  0  0  0  0  0  0  0  0  0  0  0
   35.0075    1.3509   10.8514 C   0  0  0  0  0  0  0  0  0  0  0  0
   35.9839    0.8540    9.9894 C   0  0  0  0  0  0  0  0  0  0  0  0
   37.3260    1.1810   10.1830 C   0  0  0  0  0  0  0  0  0  0  0  0
   37.6914    2.0147   11.2396 C   0  0  0  0  0  0  0  0  0  0  0  0
   39.1749    6.2318   13.9220 C   0  0  0  0  0  0  0  0  0  0  0  0
   39.5890    7.6410   14.3716 C   0  0  0  0  0  0  0  0  0  0  0  0
   40.8302   11.1974   15.9487 C   0  0  0  0  0  0  0  0  0  0  0  0
   43.4983   14.0501   16.7177 S   0  0  0  0  0  0  0  0  0  0  0  0
   43.3217   15.4163   15.6304 C   0  0  0  0  0  0  0  0  0  0  0  0
   44.0369   16.6621   15.9952 C   0  0  0  0  0  0  0  0  0  0  0  0
   44.7246   16.6743   17.0397 O   0  5  0  0  0  0  0  0  0  0  0  0
   43.9393   17.6669   15.2557 O   0  0  0  0  0  0  0  0  0  0  0  0
   40.1114   15.8832   13.8904 H   0  0  0  0  0  0  0  0  0  0  0  0
   40.8959   17.1443   14.8148 H   0  0  0  0  0  0  0  0  0  0  0  0
   41.5362   13.3167   13.8010 H   0  0  0  0  0  0  0  0  0  0  0  0
   44.1102   11.1702   16.8114 H   0  0  0  0  0  0  0  0  0  0  0  0
   43.5245    8.8663   17.4330 H   0  0  0  0  0  0  0  0  0  0  0  0
   41.2435    8.0196   17.0741 H   0  0  0  0  0  0  0  0  0  0  0  0
   38.4495   10.1616   16.0962 H   0  0  0  0  0  0  0  0  0  0  0  0
   39.2589    7.4686   16.5076 H   0  0  0  0  0  0  0  0  0  0  0  0
   36.8766    8.0462   16.5360 H   0  0  0  0  0  0  0  0  0  0  0  0
   36.9348    8.6028   14.8873 H   0  0  0  0  0  0  0  0  0  0  0  0
   37.2043    5.6975   15.8233 H   0  0  0  0  0  0  0  0  0  0  0  0
   35.9002    6.3859   14.9017 H   0  0  0  0  0  0  0  0  0  0  0  0
   38.1417    3.3051   13.5054 H   0  0  0  0  0  0  0  0  0  0  0  0
   36.4997    3.3778   14.1203 H   0  0  0  0  0  0  0  0  0  0  0  0
   34.6122    2.5581   12.5796 H   0  0  0  0  0  0  0  0  0  0  0  0
   33.9695    1.0894   10.7059 H   0  0  0  0  0  0  0  0  0  0  0  0
   35.7021    0.2151    9.1655 H   0  0  0  0  0  0  0  0  0  0  0  0
   38.0786    0.7889    9.5150 H   0  0  0  0  0  0  0  0  0  0  0  0
   38.7325    2.2595   11.3901 H   0  0  0  0  0  0  0  0  0  0  0  0
   39.5253    5.4655   14.6134 H   0  0  0  0  0  0  0  0  0  0  0  0
   39.6129    5.9826   12.9555 H   0  0  0  0  0  0  0  0  0  0  0  0
   39.3499    8.3541   13.5828 H   0  0  0  0  0  0  0  0  0  0  0  0
   40.6706    7.6852   14.4991 H   0  0  0  0  0  0  0  0  0  0  0  0
   40.0876   11.8684   15.5552 H   0  0  0  0  0  0  0  0  0  0  0  0
  1  2  1  0
  2  3  2  0
  2  4  1  0
  4  5  1  0
  5  6  1  0
  6  7  1  0
  6 33  2  0
  7  8  2  0
  8  9  1  0
  8 32  1  0
  9 10  2  0
  9 31  1  0
 10 11  1  0
 11 12  2  0
 12 13  1  0
 13 14  1  0
 13 31  2  0
 14 15  1  0
 15 16  1  0
 15 30  1  0
 16 17  1  0
 17 18  1  0
 18 19  1  0
 18 29  1  0
 19 20  2  0
 19 21  2  0
 19 22  1  0
 22 23  1  0
 23 24  2  0
 23 28  1  0
 24 25  1  0
 25 26  2  0
 26 27  1  0
 27 28  2  0
 29 30  1  0
 32 33  1  0
 33 34  1  0
 34 35  1  0
 34 36  2  0
  4 37  1  0
  4 38  1  0
  7 39  1  0
 10 40  1  0
 11 41  1  0
 12 42  1  0
 14 43  1  0
 15 44  1  0
 16 45  1  0
 16 46  1  0
 17 47  1  0
 17 48  1  0
 22 49  1  0
 22 50  1  0
 24 51  1  0
 25 52  1  0
 26 53  1  0
 27 54  1  0
 28 55  1  0
 29 56  1  0
 29 57  1  0
 30 58  1  0
 30 59  1  0
 31 60  1  0
M  CHG  2   1  -1  35  -1
M  END
>  <i_m_stars>
2

>  <r_user_dG.exp>
-7.75184064198728

>  <ptp1b_ 23469 Relative Activity>
2.2

>  <ptp1b_ 23469 Relative Activity Error>
4.3

>  <Total Formal Charge>
-2

>  <Favorite_cresset>
false

>  <MW_cresset>
528.6

>  <#Atoms_cresset>
36

>  <SlogP_cresset>
4

>  <TPSA_cresset>
138.9

>  <Flexibility_cresset>
8

>  <Rof5_cresset>
1

>  <Confs_cresset>
0

>  <Poses_cresset>
0

$$$$
23479
  xed2sdf           3D
 
 49 51  0  0  0  0  0  0  0  0999 V2000
   35.6786    5.3429   12.4885 C   0  0  0  0  0  0  0  0  0  0  0  0
   37.1893    5.3575   12.4233 C   0  0  0  0  0  0  0  0  0  0  0  0
   37.7618    5.1172   11.3691 O   0  0  0  0  0  0  0  0  0  0  0  0
   37.8135    5.6489   13.5842 N   0  0  0  0  0  0  0  0  0  0  0  0
   37.1401    6.0242   14.8452 C   0  0  0  0  0  0  0  0  0  0  0  0
   37.4942    7.5001   15.1075 C   0  0  0  0  0  0  0  0  0  0  0  0
   39.0264    7.6797   15.2112 C   0  0  0  0  0  0  0  0  0  0  0  0
   39.3197    9.1233   15.2698 N   0  0  0  0  0  0  0  0  0  0  0  0
   40.4916    9.6412   15.8418 C   0  0  0  0  0  0  0  0  0  0  0  0
   41.3306    8.8807   16.6505 C   0  0  0  0  0  0  0  0  0  0  0  0
   42.4578    9.4500   17.2087 C   0  0  0  0  0  0  0  0  0  0  0  0
   42.7710   10.7592   16.9613 C   0  0  0  0  0  0  0  0  0  0  0  0
   41.9656   11.5463   16.1284 C   0  0  0  0  0  0  0  0  0  0  0  0
   42.3000   12.8922   15.8368 C   0  0  0  0  0  0  0  0  0  0  0  0
   43.6742   13.6727   16.6745 S   0  0  0  0  0  0  0  0  0  0  0  0
   43.3214   15.1580   15.7527 C   0  0  0  0  0  0  0  0  0  0  0  0
   44.1868   16.2541   16.0481 C   0  0  0  0  0  0  0  0  0  0  0  0
   45.0885   16.0601   16.9092 O   0  5  0  0  0  0  0  0  0  0  0  0
   43.9695   17.3283   15.4224 O   0  0  0  0  0  0  0  0  0  0  0  0
   42.2526   15.0249   14.8877 C   0  0  0  0  0  0  0  0  0  0  0  0
   41.8593   16.0357   14.0956 O   0  0  0  0  0  0  0  0  0  0  0  0
   40.4463   16.2311   13.8922 C   0  0  0  0  0  0  0  0  0  0  0  0
   40.2332   17.2761   12.8304 C   0  0  0  0  0  0  0  0  0  0  0  0
   40.9728   17.2015   11.7878 O   0  5  0  0  0  0  0  0  0  0  0  0
   39.3292   18.1537   13.0559 O   0  0  0  0  0  0  0  0  0  0  0  0
   41.6903   13.7464   14.9342 C   0  0  0  0  0  0  0  0  0  0  0  0
   40.2544   13.2044   13.8305 Br  0  0  0  0  0  0  0  0  0  0  0  0
   40.8201   10.9512   15.5936 C   0  0  0  0  0  0  0  0  0  0  0  0
   39.7214    7.1307   13.9430 C   0  0  0  0  0  0  0  0  0  0  0  0
   39.2830    5.6835   13.6465 C   0  0  0  0  0  0  0  0  0  0  0  0
   35.2556    6.4195   12.8095 H   0  0  0  0  0  0  0  0  0  0  0  0
   35.2989    4.4818   13.2337 H   0  0  0  0  0  0  0  0  0  0  0  0
   35.2636    5.0940   11.3901 H   0  0  0  0  0  0  0  0  0  0  0  0
   35.9494    5.8957   14.8715 H   0  0  0  0  0  0  0  0  0  0  0  0
   37.6034    5.3675   15.7359 H   0  0  0  0  0  0  0  0  0  0  0  0
   36.9882    7.8580   16.1347 H   0  0  0  0  0  0  0  0  0  0  0  0
   37.0706    8.1642   14.2022 H   0  0  0  0  0  0  0  0  0  0  0  0
   39.3829    7.0750   16.1822 H   0  0  0  0  0  0  0  0  0  0  0  0
   38.6269    9.6674   15.2430 H   0  0  0  0  0  0  0  0  0  0  0  0
   41.1204    7.9234   16.8388 H   0  0  0  0  0  0  0  0  0  0  0  0
   43.0516    8.9019   17.7973 H   0  0  0  0  0  0  0  0  0  0  0  0
   43.5916   11.1560   17.3724 H   0  0  0  0  0  0  0  0  0  0  0  0
   39.9364   16.5872   14.9188 H   0  0  0  0  0  0  0  0  0  0  0  0
   39.9155   15.2258   13.5114 H   0  0  0  0  0  0  0  0  0  0  0  0
   40.2206   11.4968   15.0080 H   0  0  0  0  0  0  0  0  0  0  0  0
   40.9120    7.1716   14.0860 H   0  0  0  0  0  0  0  0  0  0  0  0
   39.4151    7.8222   13.0114 H   0  0  0  0  0  0  0  0  0  0  0  0
   39.7585    5.3264   12.6041 H   0  0  0  0  0  0  0  0  0  0  0  0
   39.6652    4.9624   14.5260 H   0  0  0  0  0  0  0  0  0  0  0  0
  1  2  1  0
  2  3  2  0
  2  4  1  0
  4  5  1  0
  4 30  1  0
  5  6  1  0
  6  7  1  0
  7  8  1  0
  7 29  1  0
  8  9  1  0
  9 10  2  0
  9 28  1  0
 10 11  1  0
 11 12  2  0
 12 13  1  0
 13 14  1  0
 13 28  2  0
 14 15  1  0
 14 26  2  0
 15 16  1  0
 16 17  1  0
 16 20  2  0
 17 18  1  0
 17 19  2  0
 20 21  1  0
 20 26  1  0
 21 22  1  0
 22 23  1  0
 23 24  1  0
 23 25  2  0
 26 27  1  0
 29 30  1  0
  1 31  1  0
  1 32  1  0
  1 33  1  0
  5 34  1  0
  5 35  1  0
  6 36  1  0
  6 37  1  0
  7 38  1  0
  8 39  1  0
 10 40  1  0
 11 41  1  0
 12 42  1  0
 22 43  1  0
 22 44  1  0
 28 45  1  0
 29 46  1  0
 29 47  1  0
 30 48  1  0
 30 49  1  0
M  CHG  2  18  -1  24  -1
M  END
>  <i_m_stars>
2

>  <r_user_dG.exp>
-9.14235922654499

>  <ptp1b_ 23469 Relative Activity>
2.4

>  <ptp1b_ 23469 Relative Activity Error>
5.4

>  <Total Formal Charge>
-2

>  <Favorite_cresset>
false

>  <MW_cresset>
495.3

>  <#Atoms_cresset>
30

>  <SlogP_cresset>
3.8

>  <TPSA_cresset>
121.8

>  <Flexibility_cresset>
5.2

>  <Rof5_cresset>
0

>  <Confs_cresset>
0

>  <Poses_cresset>
0

$$$$
23330(2qbq)
  xed2sdf           3D
 
 57 59  0  0  0  0  0  0  0  0999 V2000
   43.3233   13.7400   16.9527 S   0  0  0  0  0  0  0  0  0  0  0  0
   43.2030   15.1929   15.9762 C   0  0  0  0  0  0  0  0  0  0  0  0
   42.4447   14.9739   14.8477 C   0  0  0  0  0  0  0  0  0  0  0  0
   41.9770   13.6283   14.7765 C   0  0  0  0  0  0  0  0  0  0  0  0
   42.3482   12.8303   15.8279 C   0  0  0  0  0  0  0  0  0  0  0  0
   43.9057   16.4430   16.4763 C   0  0  0  0  0  0  0  0  0  0  0  0
   44.5237   16.3493   17.5596 O   0  5  0  0  0  0  0  0  0  0  0  0
   43.7737   17.4605   15.7592 O   0  0  0  0  0  0  0  0  0  0  0  0
   42.0535   11.4291   16.1130 C   0  0  0  0  0  0  0  0  0  0  0  0
   40.7754   10.8941   15.8359 C   0  0  0  0  0  0  0  0  0  0  0  0
   40.4853    9.5424   16.1107 C   0  0  0  0  0  0  0  0  0  0  0  0
   41.4762    8.7108   16.6670 C   0  0  0  0  0  0  0  0  0  0  0  0
   42.7529    9.2326   16.9457 C   0  0  0  0  0  0  0  0  0  0  0  0
   43.0383   10.5835   16.6694 C   0  0  0  0  0  0  0  0  0  0  0  0
   40.9483   13.0395   13.2971 Br  0  0  0  0  0  0  0  0  0  0  0  0
   42.2170   15.8802   13.8703 O   0  0  0  0  0  0  0  0  0  0  0  0
   41.2561   16.8862   14.1750 C   0  0  0  0  0  0  0  0  0  0  0  0
   40.9764   17.7598   12.9456 C   0  0  0  0  0  0  0  0  0  0  0  0
   40.0382   17.4490   12.1783 O   0  5  0  0  0  0  0  0  0  0  0  0
   41.7122   18.7575   12.7906 O   0  0  0  0  0  0  0  0  0  0  0  0
   39.1897    9.0765   15.8167 N   0  0  0  0  0  0  0  0  0  0  0  0
   38.9258    7.6726   15.5737 C   0  0  0  0  0  0  0  0  0  0  0  0
   37.4107    7.4354   15.4606 C   0  0  0  0  0  0  0  0  0  0  0  0
   37.0992    5.9646   15.1380 C   0  0  0  0  0  0  0  0  0  0  0  0
   37.8320    5.5053   13.8665 C   0  0  0  0  0  0  0  0  0  0  0  0
   39.3470    5.7425   13.9797 C   0  0  0  0  0  0  0  0  0  0  0  0
   39.6585    7.2133   14.3023 C   0  0  0  0  0  0  0  0  0  0  0  0
   35.5944    5.7760   14.9686 C   0  0  0  0  0  0  0  0  0  0  0  0
   37.5116    5.0835   16.3137 C   0  0  0  0  0  0  0  0  0  0  0  0
   40.0361    5.3373   12.6798 C   0  0  0  0  0  0  0  0  0  0  0  0
   39.9263    4.8450   15.0695 C   0  0  0  0  0  0  0  0  0  0  0  0
   40.0223   11.5284   15.3918 H   0  0  0  0  0  0  0  0  0  0  0  0
   41.2785    7.6723   16.8842 H   0  0  0  0  0  0  0  0  0  0  0  0
   43.5204    8.5921   17.3560 H   0  0  0  0  0  0  0  0  0  0  0  0
   44.0255   10.9664   16.8787 H   0  0  0  0  0  0  0  0  0  0  0  0
   40.3174   16.4390   14.5068 H   0  0  0  0  0  0  0  0  0  0  0  0
   41.6234   17.5201   14.9838 H   0  0  0  0  0  0  0  0  0  0  0  0
   38.6249    9.7034   15.2558 H   0  0  0  0  0  0  0  0  0  0  0  0
   39.3172    7.1339   16.4367 H   0  0  0  0  0  0  0  0  0  0  0  0
   36.9186    7.7249   16.3890 H   0  0  0  0  0  0  0  0  0  0  0  0
   36.9969    8.0765   14.6822 H   0  0  0  0  0  0  0  0  0  0  0  0
   37.6335    4.4493   13.6837 H   0  0  0  0  0  0  0  0  0  0  0  0
   37.4405    6.0440   13.0036 H   0  0  0  0  0  0  0  0  0  0  0  0
   39.3640    7.8427   13.4625 H   0  0  0  0  0  0  0  0  0  0  0  0
   40.7334    7.3480   14.4233 H   0  0  0  0  0  0  0  0  0  0  0  0
   35.3442    4.7449   14.7157 H   0  0  0  0  0  0  0  0  0  0  0  0
   35.0533    6.0262   15.8811 H   0  0  0  0  0  0  0  0  0  0  0  0
   35.1963    6.4082   14.1751 H   0  0  0  0  0  0  0  0  0  0  0  0
   37.4373    4.0237   16.0675 H   0  0  0  0  0  0  0  0  0  0  0  0
   38.5225    5.2716   16.6604 H   0  0  0  0  0  0  0  0  0  0  0  0
   36.8724    5.2577   17.1806 H   0  0  0  0  0  0  0  0  0  0  0  0
   41.1045    5.5542   12.7107 H   0  0  0  0  0  0  0  0  0  0  0  0
   39.9233    4.2707   12.4802 H   0  0  0  0  0  0  0  0  0  0  0  0
   39.6277    5.8674   11.8225 H   0  0  0  0  0  0  0  0  0  0  0  0
   41.0117    4.8712   15.0469 H   0  0  0  0  0  0  0  0  0  0  0  0
   39.6557    5.1477   16.0756 H   0  0  0  0  0  0  0  0  0  0  0  0
   39.6249    3.8045   14.9423 H   0  0  0  0  0  0  0  0  0  0  0  0
  1  2  1  0
  1  5  1  0
  2  3  2  0
  2  6  1  0
  3  4  1  0
  3 16  1  0
  4  5  2  0
  4 15  1  0
  5  9  1  0
  6  7  1  0
  6  8  2  0
  9 10  2  0
  9 14  1  0
 10 11  1  0
 11 12  2  0
 11 21  1  0
 12 13  1  0
 13 14  2  0
 16 17  1  0
 17 18  1  0
 18 19  1  0
 18 20  2  0
 21 22  1  0
 22 23  1  0
 22 27  1  0
 23 24  1  0
 24 25  1  0
 24 28  1  0
 24 29  1  0
 25 26  1  0
 26 27  1  0
 26 30  1  0
 26 31  1  0
 10 32  1  0
 12 33  1  0
 13 34  1  0
 14 35  1  0
 17 36  1  0
 17 37  1  0
 21 38  1  0
 22 39  1  0
 23 40  1  0
 23 41  1  0
 25 42  1  0
 25 43  1  0
 27 44  1  0
 27 45  1  0
 28 46  1  0
 28 47  1  0
 28 48  1  0
 29 49  1  0
 29 50  1  0
 29 51  1  0
 30 52  1  0
 30 53  1  0
 30 54  1  0
 31 55  1  0
 31 56  1  0
 31 57  1  0
M  CHG  2   7  -1  19  -1
M  END
>  <i_m_stars>
3

>  <r_user_dG.exp>
-10.1250500980544

>  <ptp1b_ 23469 Relative Activity>
-2.4

>  <ptp1b_ 23469 Relative Activity Error>
1.4

>  <Total Formal Charge>
-2

>  <Favorite_cresset>
false

>  <MW_cresset>
508.4

>  <#Atoms_cresset>
31

>  <SlogP_cresset>
6.4

>  <TPSA_cresset>
101.5

>  <Flexibility_cresset>
5

>  <Rof5_cresset>
2

>  <Confs_cresset>
0

>  <Poses_cresset>
0

$$$$
