46_48
  xed2sdf           3D
 
 28 29  0  0  0  0  0  0  0  0999 V2000
    3.4587  -49.9329    7.0190 O   0  5  0  0  0  0  0  0  0  0  0  0
    2.7395  -48.9310    6.7390 C   0  0  0  0  0  0  0  0  0  0  0  0
    3.1237  -47.7276    6.6718 O   0  0  0  0  0  0  0  0  0  0  0  0
    1.3611  -49.2031    6.4753 C   0  0  0  0  0  0  0  0  0  0  0  0
   -0.4235  -50.4067    6.2375 C   0  0  0  0  0  0  0  0  0  0  0  0
   -1.3133  -51.4513    6.1733 C   0  0  0  0  0  0  0  0  0  0  0  0
   -2.6272  -51.1516    5.8481 C   0  0  0  0  0  0  0  0  0  0  0  0
   -3.0259  -49.8422    5.5966 C   0  0  0  0  0  0  0  0  0  0  0  0
   -2.1377  -48.8021    5.6618 C   0  0  0  0  0  0  0  0  0  0  0  0
   -0.8009  -49.0877    5.9910 C   0  0  0  0  0  0  0  0  0  0  0  0
    0.3491  -48.3046    6.1441 C   0  0  0  0  0  0  0  0  0  0  0  0
    0.4278  -46.7972    5.9747 C   0  0  0  0  0  0  0  0  0  0  0  0
    0.3670  -45.9900    7.2851 C   0  0  0  0  0  0  0  0  0  0  0  0
   -1.0008  -46.1248    7.9790 C   0  0  0  0  0  0  0  0  0  0  0  0
   -2.0429  -45.5419    7.1820 O   0  0  0  0  0  0  0  0  0  0  0  0
    0.8898  -50.5240    6.5378 N   0  0  0  0  0  0  0  0  0  0  0  0
   -1.0246  -52.3917    6.3536 H   0  0  0  0  0  0  0  0  0  0  0  0
   -3.3003  -51.8890    5.7929 H   0  0  0  0  0  0  0  0  0  0  0  0
   -3.9807  -49.6571    5.3636 H   0  0  0  0  0  0  0  0  0  0  0  0
   -2.4323  -47.8639    5.4795 H   0  0  0  0  0  0  0  0  0  0  0  0
   -0.4811  -46.4440    5.2757 H   0  0  0  0  0  0  0  0  0  0  0  0
    1.4574  -46.5331    5.4190 H   0  0  0  0  0  0  0  0  0  0  0  0
    0.5482  -44.8316    7.0304 H   0  0  0  0  0  0  0  0  0  0  0  0
    1.2330  -46.3694    8.0237 H   0  0  0  0  0  0  0  0  0  0  0  0
   -0.9585  -45.5595    9.0365 H   0  0  0  0  0  0  0  0  0  0  0  0
   -1.2404  -47.2855    8.1670 H   0  0  0  0  0  0  0  0  0  0  0  0
    1.3435  -51.2544    6.7278 H   0  0  0  0  0  0  0  0  0  0  0  0
   -2.9341  -45.6061    7.6441 H   0  0  0  0  0  0  0  0  0  0  0  0
  1  2  1  0
  2  3  2  0
  2  4  1  0
  4 11  2  0
  4 16  1  0
  5  6  1  0
  5 10  2  0
  5 16  1  0
  6  7  2  0
  7  8  1  0
  8  9  2  0
  9 10  1  0
 10 11  1  0
 11 12  1  0
 12 13  1  0
 13 14  1  0
 14 15  1  0
  6 17  1  0
  7 18  1  0
  8 19  1  0
  9 20  1  0
 12 21  1  0
 12 22  1  0
 13 23  1  0
 13 24  1  0
 14 25  1  0
 14 26  1  0
 15 28  1  0
 16 27  1  0
M  CHG  1   1  -1
M  END
>  <r_user_dG.exp>
-8.95356461676206

>  <Favorite_cresset>
false

>  <MW_cresset>
218.2

>  <#Atoms_cresset>
16

>  <SlogP_cresset>
2.2

>  <TPSA_cresset>
76.2

>  <Flexibility_cresset>
4.3

>  <Rof5_cresset>
0

>  <Confs_cresset>
0

>  <Poses_cresset>
0

$$$$
