@<TRIPOS>MOLECULE
ejm_49
    39     41      1
SMALL
USER_CHARGES
@<TRIPOS>ATOM
      1  C          -1.9612   21.5502  -27.3300 C.ar      1 MOL1        0.0000
      2  C          -1.2942   22.4120  -28.1957 C.ar      1 MOL1        0.0000
      3  C          -1.9550   22.9520  -29.2938 C.ar      1 MOL1        0.0000
      4  C          -3.2998   22.6223  -29.5426 C.ar      1 MOL1        0.0000
      5  C          -3.9689   21.7588  -28.6534 C.ar      1 MOL1        0.0000
      6  C          -3.2917   21.2292  -27.5624 C.ar      1 MOL1        0.0000
      7  CL         -5.6403   21.3533  -28.9190 Cl        1 MOL1        0.0000
      8  C          -4.0401   23.1522  -30.7110 C.2       1 MOL1        0.0000
      9  O          -4.2265   22.4198  -31.6685 O.2       1 MOL1        0.0000
     10  N          -4.5133   24.4119  -30.6476 N.am      1 MOL1        0.0000
     11  C          -5.2869   25.1112  -31.5800 C.ar      1 MOL1        0.0000
     12  C          -5.9620   24.5479  -32.6807 C.ar      1 MOL1        0.0000
     13  C          -6.7806   25.3609  -33.4589 C.ar      1 MOL1        0.0000
     14  N          -6.9234   26.6542  -33.1828 N.ar      1 MOL1        0.0000
     15  C          -6.2984   27.2317  -32.1577 C.ar      1 MOL1        0.0000
     16  C          -5.5070   26.4571  -31.3066 C.ar      1 MOL1        0.0000
     17  N          -6.5391   28.5828  -31.8838 N.am      1 MOL1        0.0000
     18  C          -5.7134   29.4445  -31.2331 C.2       1 MOL1        0.0000
     19  O          -4.6156   29.1218  -30.8098 O.2       1 MOL1        0.0000
     20  CL         -1.1124   24.0506  -30.3318 Cl        1 MOL1        0.0000
     21  C          -7.0259   33.5314  -30.6164 C.ar      1 MOL1        0.0000
     22  C          -7.2461   32.9020  -31.8526 C.ar      1 MOL1        0.0000
     23  C          -6.8210   31.5783  -32.0524 C.ar      1 MOL1        0.0000
     24  C          -6.1757   30.8841  -31.0159 C.ar      1 MOL1        0.0000
     25  C          -5.9555   31.5134  -29.7797 C.ar      1 MOL1        0.0000
     26  C          -6.3806   32.8371  -29.5799 C.ar      1 MOL1        0.0000
     27  H          -1.4436   21.1321  -26.4786 H         1 MOL1        0.0000
     28  H          -0.2591   22.6635  -28.0157 H         1 MOL1        0.0000
     29  H          -3.8111   20.5610  -26.8909 H         1 MOL1        0.0000
     30  H          -4.3168   24.9848  -29.8393 H         1 MOL1        0.0000
     31  H          -5.8400   23.4993  -32.9094 H         1 MOL1        0.0000
     32  H          -7.3119   24.9439  -34.3018 H         1 MOL1        0.0000
     33  H          -5.0645   26.9093  -30.4313 H         1 MOL1        0.0000
     34  H          -7.4045   29.0126  -32.1802 H         1 MOL1        0.0000
     35  H          -7.3599   34.5713  -30.4595 H         1 MOL1        0.0000
     36  H          -7.7531   33.4474  -32.6669 H         1 MOL1        0.0000
     37  H          -6.9940   31.0839  -33.0235 H         1 MOL1        0.0000
     38  H          -5.4486   30.9679  -28.9655 H         1 MOL1        0.0000
     39  H          -6.2076   33.3315  -28.6088 H         1 MOL1        0.0000
@<TRIPOS>BOND
     1      1      2 ar
     2      1      6 ar
     3      2      3 ar
     4      3      4 ar
     5      3     20 1 
     6      4      5 ar
     7      4      8 1 
     8      5      6 ar
     9      5      7 1 
    10      8      9 2 
    11      8     10 am
    12     10     11 1 
    13     11     12 ar
    14     11     16 ar
    15     12     13 ar
    16     13     14 ar
    17     14     15 ar
    18     15     16 ar
    19     15     17 1 
    20     17     18 am
    21     18     19 2 
    22     18     24 1 
    23     21     22 ar
    24     21     26 ar
    25     22     23 ar
    26     23     24 ar
    27     24     25 ar
    28     25     26 ar
    29      1     27 1 
    30      2     28 1 
    31      6     29 1 
    32     10     30 1 
    33     12     31 1 
    34     13     32 1 
    35     16     33 1 
    36     17     34 1 
    37     21     35 1 
    38     22     36 1 
    39     23     37 1 
    40     25     38 1 
    41     26     39 1 
@<TRIPOS>SUBSTRUCTURE
     1 MOL1         1 MOLECULE 1 A  MOL 
# Molecule written by the XED library from Cresset
