@<TRIPOS>MOLECULE
jul_01
    29     30      1
SMALL
USER_CHARGES
@<TRIPOS>ATOM
      1  C          -1.9612   21.5502  -27.3299 C.ar      1 MOL1        0.0000
      2  C          -1.2942   22.4122  -28.1958 C.ar      1 MOL1        0.0000
      3  C          -1.9550   22.9520  -29.2938 C.ar      1 MOL1        0.0000
      4  C          -3.2998   22.6224  -29.5426 C.ar      1 MOL1        0.0000
      5  C          -3.9689   21.7588  -28.6534 C.ar      1 MOL1        0.0000
      6  C          -3.2918   21.2294  -27.5623 C.ar      1 MOL1        0.0000
      7  CL         -5.6402   21.3535  -28.9190 Cl        1 MOL1        0.0000
      8  C          -4.0401   23.1522  -30.7110 C.2       1 MOL1        0.0000
      9  O          -4.2266   22.4199  -31.6686 O.2       1 MOL1        0.0000
     10  N          -4.5134   24.4119  -30.6476 N.am      1 MOL1        0.0000
     11  C          -5.2868   25.1111  -31.5803 C.ar      1 MOL1        0.0000
     12  C          -5.9619   24.5480  -32.6807 C.ar      1 MOL1        0.0000
     13  C          -6.7806   25.3610  -33.4589 C.ar      1 MOL1        0.0000
     14  N          -6.9233   26.6542  -33.1828 N.ar      1 MOL1        0.0000
     15  C          -6.2982   27.2316  -32.1576 C.ar      1 MOL1        0.0000
     16  C          -5.5071   26.4571  -31.3067 C.ar      1 MOL1        0.0000
     17  N          -6.5392   28.5828  -31.8838 N.am      1 MOL1        0.0000
     18  C          -5.7099   29.4222  -31.2339 C.2       1 MOL1        0.0000
     19  O          -4.6156   29.1217  -30.8096 O.2       1 MOL1        0.0000
     20  CL         -1.1124   24.0506  -30.3317 Cl        1 MOL1        0.0000
     21  H          -5.9895   30.3738  -31.0730 H         1 MOL1        0.0000
     22  H          -1.4439   21.1319  -26.4785 H         1 MOL1        0.0000
     23  H          -0.2591   22.6635  -28.0156 H         1 MOL1        0.0000
     24  H          -3.8113   20.5611  -26.8908 H         1 MOL1        0.0000
     25  H          -4.3167   24.9850  -29.8393 H         1 MOL1        0.0000
     26  H          -5.8399   23.4994  -32.9095 H         1 MOL1        0.0000
     27  H          -7.3118   24.9440  -34.3018 H         1 MOL1        0.0000
     28  H          -5.0644   26.9093  -30.4311 H         1 MOL1        0.0000
     29  H          -7.4043   29.0125  -32.1803 H         1 MOL1        0.0000
@<TRIPOS>BOND
     1      2      1 ar
     2      3      2 ar
     3      4      3 ar
     4      5      4 ar
     5      6      1 ar
     6      6      5 ar
     7      7      5 1 
     8      8      4 1 
     9      9      8 2 
    10     10      8 am
    11     11     10 1 
    12     12     11 ar
    13     13     12 ar
    14     14     13 ar
    15     15     14 ar
    16     16     11 ar
    17     16     15 ar
    18     17     15 1 
    19     18     17 am
    20     19     18 2 
    21     20      3 1 
    22     21     18 1 
    23     22      1 1 
    24     23      2 1 
    25     24      6 1 
    26     25     10 1 
    27     26     12 1 
    28     27     13 1 
    29     28     16 1 
    30     29     17 1 
@<TRIPOS>SUBSTRUCTURE
     1 MOL1         1 MOLECULE 1 A  MOL 
