21_32_1oiy
  xed2sdf           3D
 
 53 56  0  0  1  0  0  0  0  0999 V2000
    1.4000   29.1263    6.8916 C   0  0  0  0  0  0  0  0  0  0  0  0
   -1.7595   31.9133    8.0259 C   0  0  0  0  0  0  0  0  0  0  0  0
   -0.7887   26.3965    8.8484 C   0  0  0  0  0  0  0  0  0  0  0  0
   -1.4624   25.5733    9.9632 C   0  0  0  0  0  0  0  0  0  0  0  0
   -1.1867   24.0787    9.6889 C   0  0  0  0  0  0  0  0  0  0  0  0
   -1.7262   23.1932   10.8299 C   0  0  0  0  0  0  0  0  0  0  0  0
   -1.0771   23.6112   12.1619 C   0  0  0  0  0  0  0  0  0  0  0  0
   -1.4401   25.0766   12.4639 C   0  0  0  0  0  0  0  0  0  0  0  0
   -0.8947   25.9812   11.3430 C   0  0  0  0  0  0  0  0  0  0  0  0
    4.5781   25.6764    5.7811 C   0  0  0  0  0  0  0  0  0  0  0  0
    4.6300   25.1621    7.0591 C   0  0  0  0  0  0  0  0  0  0  0  0
    4.0045   25.8108    8.1170 C   0  0  0  0  0  0  0  0  0  0  0  0
    3.3232   26.9856    7.8513 C   0  0  0  0  0  0  0  0  0  0  0  0
    0.7114   28.1864    7.6050 N   0  0  0  0  0  0  0  0  0  0  0  0
   -0.4293   28.6201    8.1766 C   0  0  0  0  0  0  0  0  0  0  0  0
   -1.1605   27.7889    8.8878 O   0  0  0  0  0  0  0  0  0  0  0  0
   -0.8254   29.9402    8.0279 C   0  0  0  0  0  0  0  0  0  0  0  0
   -1.8912   30.6816    8.4842 N   0  0  0  0  0  0  0  0  0  0  0  0
   -0.6471   32.0358    7.2748 N   0  0  0  0  0  0  0  0  0  0  0  0
   -0.0662   30.7897    7.2828 C   0  0  0  0  0  0  0  0  0  0  0  0
    1.0785   30.4200    6.6714 N   0  0  0  0  0  0  0  0  0  0  0  0
    2.5811   28.7274    6.3167 N   0  0  0  0  0  0  0  0  0  0  0  0
    3.2602   27.5082    6.5704 C   0  0  0  0  0  0  0  0  0  0  0  0
    3.8984   26.8432    5.5364 C   0  0  0  0  0  0  0  0  0  0  0  0
    5.5433   23.6378    7.3396 S   0  0  0  0  0  0  0  0  0  0  0  0
    5.9807   23.0824    6.0152 O   0  0  0  0  0  0  0  0  0  0  0  0
    4.5208   22.6052    8.0414 N   0  0  0  0  0  0  0  0  0  0  0  0
    4.0809   25.2880    9.3494 O   0  0  0  0  0  0  0  0  0  0  0  0
    3.5897   26.0571   10.4655 C   0  0  0  0  0  0  0  0  0  0  0  0
   -2.4010   32.6577    8.2117 H   0  0  0  0  0  0  0  0  0  0  0  0
    0.4003   26.2734    8.9602 H   0  0  0  0  0  0  0  0  0  0  0  0
   -1.1190   25.9576    7.7812 H   0  0  0  0  0  0  0  0  0  0  0  0
   -2.6482   25.7575    9.9482 H   0  0  0  0  0  0  0  0  0  0  0  0
   -1.7150   23.7594    8.6596 H   0  0  0  0  0  0  0  0  0  0  0  0
   -0.0024   23.9105    9.5939 H   0  0  0  0  0  0  0  0  0  0  0  0
   -2.9155   23.3264   10.9151 H   0  0  0  0  0  0  0  0  0  0  0  0
   -1.4662   22.0443   10.6009 H   0  0  0  0  0  0  0  0  0  0  0  0
   -1.4716   22.9048   13.0476 H   0  0  0  0  0  0  0  0  0  0  0  0
    0.1149   23.5105   12.0651 H   0  0  0  0  0  0  0  0  0  0  0  0
   -2.6329   25.1878   12.5295 H   0  0  0  0  0  0  0  0  0  0  0  0
   -0.9441   25.4024   13.5067 H   0  0  0  0  0  0  0  0  0  0  0  0
    0.2980   25.8668   11.3360 H   0  0  0  0  0  0  0  0  0  0  0  0
   -1.1830   27.1236   11.5715 H   0  0  0  0  0  0  0  0  0  0  0  0
    5.0395   25.1998    5.0324 H   0  0  0  0  0  0  0  0  0  0  0  0
    2.8690   27.4733    8.5964 H   0  0  0  0  0  0  0  0  0  0  0  0
   -0.3536   32.7597    6.8687 H   0  0  0  0  0  0  0  0  0  0  0  0
    2.9568   29.2873    5.7504 H   0  0  0  0  0  0  0  0  0  0  0  0
    3.8665   27.2161    4.6088 H   0  0  0  0  0  0  0  0  0  0  0  0
    3.6895   22.4904    7.4494 H   0  0  0  0  0  0  0  0  0  0  0  0
    4.2394   22.9721    8.9585 H   0  0  0  0  0  0  0  0  0  0  0  0
    3.8013   25.4529   11.4802 H   0  0  0  0  0  0  0  0  0  0  0  0
    4.1485   27.1185   10.5106 H   0  0  0  0  0  0  0  0  0  0  0  0
    2.4091   26.2292   10.3510 H   0  0  0  0  0  0  0  0  0  0  0  0
  1 14  2  0
  1 21  1  0
  1 22  1  0
  2 18  2  0
  2 19  1  0
  3  4  1  0
  3 16  1  0
  4  5  1  0
  4  9  1  0
  5  6  1  0
  6  7  1  0
  7  8  1  0
  8  9  1  0
 10 11  2  0
 10 24  1  0
 11 12  1  0
 11 25  1  0
 12 13  2  0
 12 28  1  0
 13 23  1  0
 14 15  1  0
 15 16  1  0
 15 17  2  0
 17 18  1  0
 17 20  1  0
 19 20  1  0
 20 21  2  0
 22 23  1  0
 23 24  2  0
 25 26  2  0
 25 27  1  0
 28 29  1  0
  2 30  1  0
  3 31  1  0
  3 32  1  0
  4 33  1  0
  5 34  1  0
  5 35  1  0
  6 36  1  0
  6 37  1  0
  7 38  1  0
  7 39  1  0
  8 40  1  0
  8 41  1  0
  9 42  1  0
  9 43  1  0
 10 44  1  0
 13 45  1  0
 19 46  1  0
 22 47  1  0
 24 48  1  0
 27 49  1  0
 27 50  1  0
 29 51  1  0
 29 52  1  0
 29 53  1  0
M  END
>  <r_user_dG.exp>
-9.75

>  <Favorite_cresset>
false

>  <MW_cresset>
416.5

>  <#Atoms_cresset>
29

>  <SlogP_cresset>
3

>  <TPSA_cresset>
128

>  <Flexibility_cresset>
6.5

>  <Rof5_cresset>
0

>  <Confs_cresset>
0

>  <Poses_cresset>
0

>  <_cresset_fieldpoints2>
 2
    -5       0.586373      26.620255       6.244212     -5.3946
    -5      -3.066870      29.617914       9.557167    -13.8188
    -5       6.025023      21.287773       6.078753    -15.1627
    -5       2.439803      31.756451       6.510393     -4.1085
    -5       6.266257      24.816151      10.125999     -2.5516
    -6      -1.167175      34.492653       6.876513     10.1142
    -6      -4.253939      24.049824       8.791853      1.3536
    -6       1.938863      22.784315       7.247156      6.5740
    -6      -4.686374      24.905361      11.136314      1.3846
    -6       2.349025      28.627735      10.364008      3.9057
    -6       3.969959      29.660044       4.169356      7.7455
    -6       1.967933      25.087675      12.817427      3.5266
    -7      -4.760298      25.076511      11.130859     -1.8279
    -7      -4.387571      24.204002       8.840697     -1.6990
    -7       1.288856      33.095284       9.174980     -1.2591
    -7      -3.152297      28.520252      10.483154     -2.3930
    -7       6.648252      27.885033       7.682647     -1.9548
    -7      -3.701047      25.231976       7.572798     -1.7203
    -7      -4.227906      23.188137      13.202085     -1.5294
    -7       1.844663      25.120005      13.226690     -2.1778
    -7       3.347347      22.548439       5.283889     -1.9389
    -7       5.029127      25.966473       2.448121     -1.0004
    -7       3.179859      31.825373       6.639125     -1.4948
    -7      -1.659574      31.759575       4.575701     -1.2467
    -7       1.451479      28.249269       3.696069     -1.6997
    -7       1.350980      28.440403      10.744083     -3.2702
    -7       1.196916      24.383377       7.239697     -3.4558
    -7       3.938355      25.284554       2.510617     -0.9973
    -7       7.628107      24.609112       5.008584     -1.6054
    -7       2.078344      23.345839       8.594303     -3.2866
    -7       5.629093      23.410854      10.558596     -2.0917
    -7       6.876997      25.627850       9.724874     -1.9911
    -8       3.960489      26.319180       6.794294      6.8896
    -8      -0.120887      29.735455       7.846623      2.8652
    -8      -1.286259      24.586952      11.070970      6.9973
    -8      -2.485160      32.870949       8.208548      1.3810
    -8      -0.772433      31.351118       7.565810      1.7051
    -8       3.218989      26.562771      11.020487      2.5425

$$$$
1h1q_1oiu
  xed2sdf           3D
 
 50 53  0  0  1  0  0  0  0  0999 V2000
    1.4106   29.1593    6.8953 C   0  0  0  0  0  0  0  0  0  0  0  0
   -1.7820   31.9104    8.0280 C   0  0  0  0  0  0  0  0  0  0  0  0
   -0.7371   26.4005    8.8243 C   0  0  0  0  0  0  0  0  0  0  0  0
   -1.3318   25.5779    9.9817 C   0  0  0  0  0  0  0  0  0  0  0  0
   -1.1149   24.0792    9.6830 C   0  0  0  0  0  0  0  0  0  0  0  0
   -1.6380   23.2136   10.8472 C   0  0  0  0  0  0  0  0  0  0  0  0
   -0.9108   23.5988   12.1496 C   0  0  0  0  0  0  0  0  0  0  0  0
   -1.1737   25.0837   12.4641 C   0  0  0  0  0  0  0  0  0  0  0  0
   -0.6382   25.9545   11.3110 C   0  0  0  0  0  0  0  0  0  0  0  0
    4.6454   25.7258    5.8780 C   0  0  0  0  0  0  0  0  0  0  0  0
    4.6024   25.1673    7.1378 C   0  0  0  0  0  0  0  0  0  0  0  0
    3.8923   25.7961    8.1339 C   0  0  0  0  0  0  0  0  0  0  0  0
    3.2322   26.9723    7.8693 C   0  0  0  0  0  0  0  0  0  0  0  0
    0.7277   28.2117    7.6022 N   0  0  0  0  0  0  0  0  0  0  0  0
   -0.4163   28.6317    8.1735 C   0  0  0  0  0  0  0  0  0  0  0  0
   -1.1324   27.7857    8.8813 O   0  0  0  0  0  0  0  0  0  0  0  0
   -0.8258   29.9477    8.0274 C   0  0  0  0  0  0  0  0  0  0  0  0
   -1.9007   30.6768    8.4828 N   0  0  0  0  0  0  0  0  0  0  0  0
   -0.6688   32.0457    7.2810 N   0  0  0  0  0  0  0  0  0  0  0  0
   -0.0731   30.8069    7.2861 C   0  0  0  0  0  0  0  0  0  0  0  0
    1.0781   30.4512    6.6771 N   0  0  0  0  0  0  0  0  0  0  0  0
    2.5985   28.7641    6.3369 N   0  0  0  0  0  0  0  0  0  0  0  0
    3.2677   27.5369    6.6029 C   0  0  0  0  0  0  0  0  0  0  0  0
    3.9854   26.9029    5.6034 C   0  0  0  0  0  0  0  0  0  0  0  0
    5.5740   24.9061    4.5793 S   0  0  0  0  0  0  0  0  0  0  0  0
    4.9386   23.5697    4.3266 O   0  0  0  0  0  0  0  0  0  0  0  0
    7.2587   24.6647    5.2067 C   0  0  0  0  0  0  0  0  0  0  0  0
   -2.4323   32.6471    8.2135 H   0  0  0  0  0  0  0  0  0  0  0  0
    0.4588   26.2992    8.8685 H   0  0  0  0  0  0  0  0  0  0  0  0
   -1.1181   25.9542    7.7774 H   0  0  0  0  0  0  0  0  0  0  0  0
   -2.5109   25.7867   10.0686 H   0  0  0  0  0  0  0  0  0  0  0  0
   -1.6973   23.7812    8.6768 H   0  0  0  0  0  0  0  0  0  0  0  0
    0.0591   23.8765    9.5384 H   0  0  0  0  0  0  0  0  0  0  0  0
   -2.8154   23.4010   10.9843 H   0  0  0  0  0  0  0  0  0  0  0  0
   -1.4410   22.0549   10.6045 H   0  0  0  0  0  0  0  0  0  0  0  0
   -1.3073   22.9164   13.0534 H   0  0  0  0  0  0  0  0  0  0  0  0
    0.2684   23.4299   12.0040 H   0  0  0  0  0  0  0  0  0  0  0  0
   -2.3549   25.2596   12.5810 H   0  0  0  0  0  0  0  0  0  0  0  0
   -0.6177   25.3848   13.4840 H   0  0  0  0  0  0  0  0  0  0  0  0
    0.5435   25.7701   11.2108 H   0  0  0  0  0  0  0  0  0  0  0  0
   -0.8413   27.1118   11.5557 H   0  0  0  0  0  0  0  0  0  0  0  0
    5.0850   24.3123    7.3268 H   0  0  0  0  0  0  0  0  0  0  0  0
    3.8564   25.3984    9.0505 H   0  0  0  0  0  0  0  0  0  0  0  0
    2.7196   27.4258    8.5985 H   0  0  0  0  0  0  0  0  0  0  0  0
   -0.3833   32.7731    6.8786 H   0  0  0  0  0  0  0  0  0  0  0  0
    2.9868   29.3290    5.7847 H   0  0  0  0  0  0  0  0  0  0  0  0
    4.0258   27.2989    4.6863 H   0  0  0  0  0  0  0  0  0  0  0  0
    7.9159   24.0944    4.3803 H   0  0  0  0  0  0  0  0  0  0  0  0
    7.7536   25.7318    5.4444 H   0  0  0  0  0  0  0  0  0  0  0  0
    7.2217   24.0085    6.2107 H   0  0  0  0  0  0  0  0  0  0  0  0
  1 14  2  0
  1 21  1  0
  1 22  1  0
  2 18  2  0
  2 19  1  0
  3  4  1  0
  3 16  1  0
  4  5  1  0
  4  9  1  0
  5  6  1  0
  6  7  1  0
  7  8  1  0
  8  9  1  0
 10 11  2  0
 10 24  1  0
 10 25  1  0
 11 12  1  0
 12 13  2  0
 13 23  1  0
 14 15  1  0
 15 16  1  0
 15 17  2  0
 17 18  1  0
 17 20  1  0
 19 20  1  0
 20 21  2  0
 22 23  1  0
 23 24  2  0
 25 26  2  0
 25 27  1  0
  2 28  1  0
  3 29  1  0
  3 30  1  0
  4 31  1  0
  5 32  1  0
  5 33  1  0
  6 34  1  0
  6 35  1  0
  7 36  1  0
  7 37  1  0
  8 38  1  0
  8 39  1  0
  9 40  1  0
  9 41  1  0
 11 42  1  0
 12 43  1  0
 13 44  1  0
 19 45  1  0
 22 46  1  0
 24 47  1  0
 27 48  1  0
 27 49  1  0
 27 50  1  0
M  END
>  <r_user_dG.exp>
-9.083

>  <Favorite_cresset>
false

>  <MW_cresset>
385.5

>  <#Atoms_cresset>
27

>  <SlogP_cresset>
3.8

>  <TPSA_cresset>
92.8

>  <Flexibility_cresset>
5

>  <Rof5_cresset>
0

>  <Confs_cresset>
0

>  <Poses_cresset>
0

>  <_cresset_fieldpoints2>
 2
    -5       0.637274      26.606964       6.237493     -6.5737
    -5      -3.059424      29.595165       9.556280    -14.0179
    -5       3.193509      23.341335       4.516070    -15.9248
    -5       5.656267      22.091299       3.687781    -14.1804
    -5       2.435368      31.796022       6.557717     -4.3491
    -5       6.034313      28.068897       8.253260     -1.7894
    -6      -1.220073      34.494926       6.868336     10.0265
    -6      -2.371197      24.413254       6.547909      1.2456
    -6      -4.521873      25.000250      11.406126      1.1865
    -6      -4.275159      24.116791       9.024109      1.0806
    -6       2.410411      24.588718      10.496568      3.5802
    -6       6.863587      23.572681       8.361433      3.6114
    -6       6.842549      27.686550       4.280206      3.6964
    -6       4.120869      29.650749       4.276285      8.0562
    -6       8.039101      25.276878       7.921986      3.3905
    -7       1.249305      33.134033       9.177942     -1.2581
    -7      -4.332085      24.347816       8.944101     -1.7124
    -7       1.631234      28.161865      10.609257     -3.0630
    -7       3.014659      31.970444       6.364861     -1.4826
    -7      -4.588669      25.190834      11.354225     -1.8050
    -7      -1.672690      31.766182       4.576895     -1.2464
    -7       1.025130      24.631737       6.805251     -3.1169
    -7      -3.739964      25.301029       7.764948     -1.7447
    -7      -2.923849      28.505108      10.717808     -2.4073
    -7      -4.031505      23.364647      13.328463     -1.5354
    -7       2.308331      24.154984      10.541828     -2.7773
    -7       2.192183      24.915382      12.967764     -1.6287
    -7       1.546808      28.208370       3.699955     -1.7230
    -7       4.241167      30.315296       8.157507     -1.7390
    -7       5.311772      22.039154       6.170844     -2.0502
    -7       6.882285      28.059967       4.579062     -1.8575
    -7       6.976535      27.621887       7.244066     -2.2210
    -7       2.460210      23.537203       4.945246     -1.8909
    -8       3.952713      26.329176       6.879358      7.0419
    -8      -1.130827      24.586807      11.067330      7.0148
    -8      -2.510484      32.862244       8.209442      1.3810
    -8       4.862146      25.634846       5.725432      5.4552
    -8      -0.122057      29.747246       7.837450      2.8656
    -8      -0.787909      31.361626       7.563777      1.7059

$$$$
