jul_01;ejm_31_ejm_46_jmc_28_ejm_49_ejm_45_ejm_48_ejm_47
  xed2sdf           3D
 
 29 30  0  0  0  0  0  0  0  0999 V2000
   -1.9612   21.5502  -27.3299 C   0  0  0  0  0  0  0  0  0  0  0  0
   -1.2942   22.4122  -28.1958 C   0  0  0  0  0  0  0  0  0  0  0  0
   -1.9550   22.9520  -29.2938 C   0  0  0  0  0  0  0  0  0  0  0  0
   -3.2998   22.6224  -29.5426 C   0  0  0  0  0  0  0  0  0  0  0  0
   -3.9689   21.7588  -28.6534 C   0  0  0  0  0  0  0  0  0  0  0  0
   -3.2918   21.2294  -27.5623 C   0  0  0  0  0  0  0  0  0  0  0  0
   -5.6402   21.3535  -28.9190 Cl  0  0  0  0  0  0  0  0  0  0  0  0
   -4.0401   23.1522  -30.7110 C   0  0  0  0  0  0  0  0  0  0  0  0
   -4.2266   22.4199  -31.6686 O   0  0  0  0  0  0  0  0  0  0  0  0
   -4.5134   24.4119  -30.6476 N   0  0  0  0  0  0  0  0  0  0  0  0
   -5.2868   25.1111  -31.5803 C   0  0  0  0  0  0  0  0  0  0  0  0
   -5.9619   24.5480  -32.6807 C   0  0  0  0  0  0  0  0  0  0  0  0
   -6.7806   25.3610  -33.4589 C   0  0  0  0  0  0  0  0  0  0  0  0
   -6.9233   26.6542  -33.1828 N   0  0  0  0  0  0  0  0  0  0  0  0
   -6.2982   27.2316  -32.1576 C   0  0  0  0  0  0  0  0  0  0  0  0
   -5.5071   26.4571  -31.3067 C   0  0  0  0  0  0  0  0  0  0  0  0
   -6.5392   28.5828  -31.8838 N   0  0  0  0  0  0  0  0  0  0  0  0
   -5.7099   29.4222  -31.2339 C   0  0  0  0  0  0  0  0  0  0  0  0
   -4.6156   29.1217  -30.8096 O   0  0  0  0  0  0  0  0  0  0  0  0
   -1.1124   24.0506  -30.3317 Cl  0  0  0  0  0  0  0  0  0  0  0  0
   -5.9895   30.3738  -31.0730 H   0  0  0  0  0  0  0  0  0  0  0  0
   -1.4439   21.1319  -26.4785 H   0  0  0  0  0  0  0  0  0  0  0  0
   -0.2591   22.6635  -28.0156 H   0  0  0  0  0  0  0  0  0  0  0  0
   -3.8113   20.5611  -26.8908 H   0  0  0  0  0  0  0  0  0  0  0  0
   -4.3167   24.9850  -29.8393 H   0  0  0  0  0  0  0  0  0  0  0  0
   -5.8399   23.4994  -32.9095 H   0  0  0  0  0  0  0  0  0  0  0  0
   -7.3118   24.9440  -34.3018 H   0  0  0  0  0  0  0  0  0  0  0  0
   -5.0644   26.9093  -30.4311 H   0  0  0  0  0  0  0  0  0  0  0  0
   -7.4043   29.0125  -32.1803 H   0  0  0  0  0  0  0  0  0  0  0  0
  2  1  2  0
  3  2  1  0
  4  3  2  0
  5  4  1  0
  6  1  1  0
  6  5  2  0
  7  5  1  0
  8  4  1  0
  9  8  2  0
 10  8  1  0
 11 10  1  0
 12 11  2  0
 13 12  1  0
 14 13  2  0
 15 14  1  0
 16 11  1  0
 16 15  2  0
 17 15  1  0
 18 17  1  0
 19 18  2  0
 20  3  1  0
 21 18  1  0
 22  1  1  0
 23  2  1  0
 24  6  1  0
 25 10  1  0
 26 12  1  0
 27 13  1  0
 28 16  1  0
 29 17  1  0
M  END
>  <Total Formal Charge>
0.0

>  <Favorite_cresset>
false

>  <MW_cresset>
310.1

>  <#Atoms_cresset>
20

>  <SlogP_cresset>
3.3

>  <TPSA_cresset>
71.1

>  <Flexibility_cresset>
0.8

>  <Rof5_cresset>
0

>  <Confs_cresset>
0

>  <Poses_cresset>
0

>  <_cresset_fieldpoints2>
 2
    -5      -3.797609      20.595509     -32.059067    -14.2194
    -5      -7.234162      27.687981     -34.763771     -9.9117
    -5      -3.091020      29.824074     -30.072361    -13.2324
    -6      -2.554017      19.792377     -25.033737      4.0633
    -6      -3.909444      25.456795     -28.029182      9.4202
    -6       0.711921      21.733599     -26.081135      4.0939
    -6      -8.349675      30.664295     -31.973721      9.9629
    -6      -7.911087      23.326920     -35.438911      1.5184
    -7       1.139251      21.725916     -25.931690     -0.9866
    -7      -2.472046      26.657623     -29.971561     -2.3483
    -7      -2.657085      19.445522     -24.744015     -0.9867
    -7      -4.404844      19.933693     -31.395920     -1.9548
    -7      -6.502624      21.411701     -31.719696     -2.2858
    -7      -7.083083      22.106148     -34.704487     -0.9428
    -7      -2.482433      23.987728     -33.018112     -2.4939
    -7      -3.471647      26.626209     -34.109642     -1.5518
    -7      -3.061826      28.340397     -32.512115     -1.6659
    -7      -5.851845      29.611969     -34.368889     -1.4079
    -7      -7.777050      28.184097     -29.329453     -1.5760
    -7      -5.022506      28.315357     -28.489101     -1.5774
    -7      -6.386562      24.227421     -28.576954     -2.7117
    -7      -7.609517      28.512524     -34.827774     -1.3293
    -7      -3.977010      24.921200     -27.285963     -2.2461
    -7      -1.882431      19.693615     -30.479630     -1.8704
    -8      -2.629476      22.090412     -28.430605      7.0016
    -8      -1.838979      23.115164     -29.433393      5.5199
    -8      -4.207123      21.712486     -28.693607      5.4962
    -8      -5.909521      25.655258     -32.193527      5.0101
    -8      -6.340868      30.546532     -31.174927      1.2493

$$$$
