ejm_31
  xed2sdf           3D
 
 32 33  0  0  0  0  0  0  0  0999 V2000
   -1.9612   21.5502  -27.3300 C   0  0  0  0  0  0  0  0  0  0  0  0
   -1.2942   22.4120  -28.1957 C   0  0  0  0  0  0  0  0  0  0  0  0
   -1.9550   22.9520  -29.2938 C   0  0  0  0  0  0  0  0  0  0  0  0
   -3.2998   22.6223  -29.5426 C   0  0  0  0  0  0  0  0  0  0  0  0
   -3.9689   21.7588  -28.6534 C   0  0  0  0  0  0  0  0  0  0  0  0
   -3.2917   21.2292  -27.5624 C   0  0  0  0  0  0  0  0  0  0  0  0
   -5.6403   21.3533  -28.9190 Cl  0  0  0  0  0  0  0  0  0  0  0  0
   -4.0401   23.1522  -30.7110 C   0  0  0  0  0  0  0  0  0  0  0  0
   -4.2265   22.4198  -31.6685 O   0  0  0  0  0  0  0  0  0  0  0  0
   -4.5133   24.4119  -30.6476 N   0  0  0  0  0  0  0  0  0  0  0  0
   -5.2869   25.1112  -31.5800 C   0  0  0  0  0  0  0  0  0  0  0  0
   -5.9620   24.5479  -32.6807 C   0  0  0  0  0  0  0  0  0  0  0  0
   -6.7806   25.3609  -33.4589 C   0  0  0  0  0  0  0  0  0  0  0  0
   -6.9234   26.6542  -33.1828 N   0  0  0  0  0  0  0  0  0  0  0  0
   -6.2984   27.2317  -32.1577 C   0  0  0  0  0  0  0  0  0  0  0  0
   -5.5070   26.4571  -31.3066 C   0  0  0  0  0  0  0  0  0  0  0  0
   -6.5391   28.5828  -31.8838 N   0  0  0  0  0  0  0  0  0  0  0  0
   -5.7134   29.4445  -31.2331 C   0  0  0  0  0  0  0  0  0  0  0  0
   -4.6156   29.1218  -30.8098 O   0  0  0  0  0  0  0  0  0  0  0  0
   -6.2319   30.8471  -31.0310 C   0  0  0  0  0  0  0  0  0  0  0  0
   -1.1124   24.0506  -30.3318 Cl  0  0  0  0  0  0  0  0  0  0  0  0
   -7.3054   30.9413  -31.1624 H   0  0  0  0  0  0  0  0  0  0  0  0
   -1.4436   21.1321  -26.4786 H   0  0  0  0  0  0  0  0  0  0  0  0
   -0.2591   22.6635  -28.0157 H   0  0  0  0  0  0  0  0  0  0  0  0
   -3.8111   20.5610  -26.8909 H   0  0  0  0  0  0  0  0  0  0  0  0
   -4.3168   24.9848  -29.8393 H   0  0  0  0  0  0  0  0  0  0  0  0
   -5.8400   23.4993  -32.9094 H   0  0  0  0  0  0  0  0  0  0  0  0
   -7.3119   24.9439  -34.3018 H   0  0  0  0  0  0  0  0  0  0  0  0
   -5.0645   26.9093  -30.4313 H   0  0  0  0  0  0  0  0  0  0  0  0
   -7.4045   29.0126  -32.1802 H   0  0  0  0  0  0  0  0  0  0  0  0
   -5.7229   31.5232  -31.7178 H   0  0  0  0  0  0  0  0  0  0  0  0
   -5.9579   31.1937  -30.0346 H   0  0  0  0  0  0  0  0  0  0  0  0
  1  2  2  0
  1  6  1  0
  2  3  1  0
  3  4  2  0
  3 21  1  0
  4  5  1  0
  4  8  1  0
  5  6  2  0
  5  7  1  0
  8  9  2  0
  8 10  1  0
 10 11  1  0
 11 12  2  0
 11 16  1  0
 12 13  1  0
 13 14  2  0
 14 15  1  0
 15 16  2  0
 15 17  1  0
 17 18  1  0
 18 19  2  0
 18 20  1  0
  1 23  1  0
  2 24  1  0
  6 25  1  0
 10 26  1  0
 12 27  1  0
 13 28  1  0
 16 29  1  0
 17 30  1  0
 20 22  1  0
 20 31  1  0
 20 32  1  0
M  END
>  <r_user_dG.exp>
-9.54

>  <Total Formal Charge>
0.0

>  <Favorite_cresset>
false

>  <MW_cresset>
324.2

>  <#Atoms_cresset>
21

>  <SlogP_cresset>
3.7

>  <TPSA_cresset>
71.1

>  <Flexibility_cresset>
0.8

>  <Rof5_cresset>
0

>  <Confs_cresset>
0

>  <Poses_cresset>
0

$$$$
jmc_30
  xed2sdf           3D
 
 37 39  0  0  1  0  0  0  0  0999 V2000
   -1.9612   21.5502  -27.3300 C   0  0  0  0  0  0  0  0  0  0  0  0
   -1.2942   22.4120  -28.1957 C   0  0  0  0  0  0  0  0  0  0  0  0
   -1.9550   22.9520  -29.2938 C   0  0  0  0  0  0  0  0  0  0  0  0
   -3.2998   22.6223  -29.5426 C   0  0  0  0  0  0  0  0  0  0  0  0
   -3.9689   21.7588  -28.6534 C   0  0  0  0  0  0  0  0  0  0  0  0
   -3.2917   21.2292  -27.5624 C   0  0  0  0  0  0  0  0  0  0  0  0
   -5.6403   21.3533  -28.9190 Cl  0  0  0  0  0  0  0  0  0  0  0  0
   -4.0401   23.1522  -30.7110 C   0  0  0  0  0  0  0  0  0  0  0  0
   -4.2265   22.4198  -31.6685 O   0  0  0  0  0  0  0  0  0  0  0  0
   -4.5133   24.4119  -30.6476 N   0  0  0  0  0  0  0  0  0  0  0  0
   -5.2869   25.1112  -31.5800 C   0  0  0  0  0  0  0  0  0  0  0  0
   -5.9620   24.5479  -32.6807 C   0  0  0  0  0  0  0  0  0  0  0  0
   -6.7806   25.3609  -33.4589 C   0  0  0  0  0  0  0  0  0  0  0  0
   -6.9234   26.6542  -33.1828 N   0  0  0  0  0  0  0  0  0  0  0  0
   -6.2984   27.2317  -32.1577 C   0  0  0  0  0  0  0  0  0  0  0  0
   -5.5070   26.4571  -31.3066 C   0  0  0  0  0  0  0  0  0  0  0  0
   -6.5391   28.5828  -31.8838 N   0  0  0  0  0  0  0  0  0  0  0  0
   -5.7134   29.4445  -31.2331 C   0  0  0  0  0  0  0  0  0  0  0  0
   -4.6156   29.1218  -30.8098 O   0  0  0  0  0  0  0  0  0  0  0  0
   -6.2319   30.8471  -31.0310 C   0  0  0  0  0  0  0  0  0  0  0  0
   -5.5787   31.7462  -29.9763 C   0  0  0  0  0  0  0  0  0  0  0  0
   -5.3636   32.0236  -31.4653 C   0  0  0  0  0  0  0  0  0  0  0  0
   -4.0190   31.7003  -32.0462 C   0  0  0  0  0  0  0  0  0  0  0  0
   -1.1124   24.0506  -30.3318 Cl  0  0  0  0  0  0  0  0  0  0  0  0
   -2.7003   31.3832  -32.6159 N   0  0  0  0  0  0  0  0  0  0  0  0
   -7.3054   30.9413  -31.1624 H   0  0  0  0  0  0  0  0  0  0  0  0
   -5.8627   32.8962  -31.8829 H   0  0  0  0  0  0  0  0  0  0  0  0
   -1.4436   21.1321  -26.4786 H   0  0  0  0  0  0  0  0  0  0  0  0
   -0.2591   22.6635  -28.0157 H   0  0  0  0  0  0  0  0  0  0  0  0
   -3.8111   20.5610  -26.8909 H   0  0  0  0  0  0  0  0  0  0  0  0
   -4.3168   24.9848  -29.8393 H   0  0  0  0  0  0  0  0  0  0  0  0
   -5.8400   23.4993  -32.9094 H   0  0  0  0  0  0  0  0  0  0  0  0
   -7.3119   24.9439  -34.3018 H   0  0  0  0  0  0  0  0  0  0  0  0
   -5.0645   26.9093  -30.4313 H   0  0  0  0  0  0  0  0  0  0  0  0
   -7.4045   29.0126  -32.1802 H   0  0  0  0  0  0  0  0  0  0  0  0
   -6.3523   32.2034  -29.3584 H   0  0  0  0  0  0  0  0  0  0  0  0
   -4.9174   31.1488  -29.3474 H   0  0  0  0  0  0  0  0  0  0  0  0
  1  2  2  0
  1  6  1  0
  2  3  1  0
  3  4  2  0
  3 24  1  0
  4  5  1  0
  4  8  1  0
  5  6  2  0
  5  7  1  0
  8  9  2  0
  8 10  1  0
 10 11  1  0
 11 12  2  0
 11 16  1  0
 12 13  1  0
 13 14  2  0
 14 15  1  0
 15 16  2  0
 15 17  1  0
 17 18  1  0
 18 19  2  0
 18 20  1  0
 20 21  1  0
 20 22  1  0
 21 22  1  0
 22 23  1  0
 23 25  3  0
  1 28  1  0
  2 29  1  0
  6 30  1  0
 10 31  1  0
 12 32  1  0
 13 33  1  0
 16 34  1  0
 17 35  1  0
 20 26  1  0
 21 36  1  0
 21 37  1  0
 22 27  1  0
M  END
>  <r_user_dG.exp>
-10.94

>  <Total Formal Charge>
0.0

>  <Favorite_cresset>
false

>  <MW_cresset>
375.2

>  <#Atoms_cresset>
25

>  <SlogP_cresset>
3.8

>  <TPSA_cresset>
94.9

>  <Flexibility_cresset>
1.8

>  <Rof5_cresset>
0

>  <Confs_cresset>
0

>  <Poses_cresset>
0

$$$$
ejm_50
  xed2sdf           3D
 
 33 34  0  0  0  0  0  0  0  0999 V2000
   -1.9612   21.5502  -27.3300 C   0  0  0  0  0  0  0  0  0  0  0  0
   -1.2942   22.4120  -28.1957 C   0  0  0  0  0  0  0  0  0  0  0  0
   -1.9550   22.9520  -29.2938 C   0  0  0  0  0  0  0  0  0  0  0  0
   -3.2998   22.6223  -29.5426 C   0  0  0  0  0  0  0  0  0  0  0  0
   -3.9689   21.7588  -28.6534 C   0  0  0  0  0  0  0  0  0  0  0  0
   -3.2917   21.2292  -27.5624 C   0  0  0  0  0  0  0  0  0  0  0  0
   -5.6403   21.3533  -28.9190 Cl  0  0  0  0  0  0  0  0  0  0  0  0
   -4.0401   23.1522  -30.7110 C   0  0  0  0  0  0  0  0  0  0  0  0
   -4.2265   22.4198  -31.6685 O   0  0  0  0  0  0  0  0  0  0  0  0
   -4.5133   24.4119  -30.6476 N   0  0  0  0  0  0  0  0  0  0  0  0
   -5.2869   25.1112  -31.5800 C   0  0  0  0  0  0  0  0  0  0  0  0
   -5.9620   24.5479  -32.6807 C   0  0  0  0  0  0  0  0  0  0  0  0
   -6.7806   25.3609  -33.4589 C   0  0  0  0  0  0  0  0  0  0  0  0
   -6.9234   26.6542  -33.1828 N   0  0  0  0  0  0  0  0  0  0  0  0
   -6.2984   27.2317  -32.1577 C   0  0  0  0  0  0  0  0  0  0  0  0
   -5.5070   26.4571  -31.3066 C   0  0  0  0  0  0  0  0  0  0  0  0
   -6.5391   28.5828  -31.8838 N   0  0  0  0  0  0  0  0  0  0  0  0
   -5.7134   29.4445  -31.2331 C   0  0  0  0  0  0  0  0  0  0  0  0
   -4.6156   29.1218  -30.8098 O   0  0  0  0  0  0  0  0  0  0  0  0
   -6.2319   30.8471  -31.0310 C   0  0  0  0  0  0  0  0  0  0  0  0
   -1.1124   24.0506  -30.3318 Cl  0  0  0  0  0  0  0  0  0  0  0  0
   -5.0874   31.8048  -30.6730 O   0  0  0  0  0  0  0  0  0  0  0  0
   -6.7611   31.2474  -31.8901 H   0  0  0  0  0  0  0  0  0  0  0  0
   -1.4436   21.1321  -26.4786 H   0  0  0  0  0  0  0  0  0  0  0  0
   -0.2591   22.6635  -28.0157 H   0  0  0  0  0  0  0  0  0  0  0  0
   -3.8111   20.5610  -26.8909 H   0  0  0  0  0  0  0  0  0  0  0  0
   -4.3168   24.9848  -29.8393 H   0  0  0  0  0  0  0  0  0  0  0  0
   -5.8400   23.4993  -32.9094 H   0  0  0  0  0  0  0  0  0  0  0  0
   -7.3119   24.9439  -34.3018 H   0  0  0  0  0  0  0  0  0  0  0  0
   -5.0645   26.9093  -30.4313 H   0  0  0  0  0  0  0  0  0  0  0  0
   -7.4045   29.0126  -32.1801 H   0  0  0  0  0  0  0  0  0  0  0  0
   -6.8876   30.8681  -30.1605 H   0  0  0  0  0  0  0  0  0  0  0  0
   -5.4617   32.7685  -30.5367 H   0  0  0  0  0  0  0  0  0  0  0  0
  1  2  2  0
  1  6  1  0
  2  3  1  0
  3  4  2  0
  3 21  1  0
  4  5  1  0
  4  8  1  0
  5  6  2  0
  5  7  1  0
  8  9  2  0
  8 10  1  0
 10 11  1  0
 11 12  2  0
 11 16  1  0
 12 13  1  0
 13 14  2  0
 14 15  1  0
 15 16  2  0
 15 17  1  0
 17 18  1  0
 18 19  2  0
 18 20  1  0
 20 22  1  0
  1 24  1  0
  2 25  1  0
  6 26  1  0
 10 27  1  0
 12 28  1  0
 13 29  1  0
 16 30  1  0
 17 31  1  0
 20 23  1  0
 20 32  1  0
 33 22  1  0
M  END
>  <r_user_dG.exp>
-8.98

>  <Total Formal Charge>
0.0

>  <Favorite_cresset>
false

>  <MW_cresset>
340.2

>  <#Atoms_cresset>
22

>  <SlogP_cresset>
3

>  <TPSA_cresset>
91.3

>  <Flexibility_cresset>
2.8

>  <Rof5_cresset>
0

>  <Confs_cresset>
0

>  <Poses_cresset>
0

$$$$
ejm_46
  xed2sdf           3D
 
 36 38  0  0  0  0  0  0  0  0999 V2000
   -1.9612   21.5502  -27.3300 C   0  0  0  0  0  0  0  0  0  0  0  0
   -1.2942   22.4120  -28.1957 C   0  0  0  0  0  0  0  0  0  0  0  0
   -1.9550   22.9520  -29.2938 C   0  0  0  0  0  0  0  0  0  0  0  0
   -3.2998   22.6223  -29.5426 C   0  0  0  0  0  0  0  0  0  0  0  0
   -3.9689   21.7588  -28.6534 C   0  0  0  0  0  0  0  0  0  0  0  0
   -3.2917   21.2292  -27.5624 C   0  0  0  0  0  0  0  0  0  0  0  0
   -5.6403   21.3533  -28.9190 Cl  0  0  0  0  0  0  0  0  0  0  0  0
   -4.0401   23.1522  -30.7110 C   0  0  0  0  0  0  0  0  0  0  0  0
   -4.2265   22.4198  -31.6685 O   0  0  0  0  0  0  0  0  0  0  0  0
   -4.5133   24.4119  -30.6476 N   0  0  0  0  0  0  0  0  0  0  0  0
   -5.2869   25.1112  -31.5800 C   0  0  0  0  0  0  0  0  0  0  0  0
   -5.9620   24.5479  -32.6807 C   0  0  0  0  0  0  0  0  0  0  0  0
   -6.7806   25.3609  -33.4589 C   0  0  0  0  0  0  0  0  0  0  0  0
   -6.9234   26.6542  -33.1828 N   0  0  0  0  0  0  0  0  0  0  0  0
   -6.2984   27.2317  -32.1577 C   0  0  0  0  0  0  0  0  0  0  0  0
   -5.5070   26.4571  -31.3066 C   0  0  0  0  0  0  0  0  0  0  0  0
   -6.5391   28.5828  -31.8838 N   0  0  0  0  0  0  0  0  0  0  0  0
   -5.7134   29.4445  -31.2331 C   0  0  0  0  0  0  0  0  0  0  0  0
   -4.6156   29.1218  -30.8098 O   0  0  0  0  0  0  0  0  0  0  0  0
   -6.2319   30.8471  -31.0310 C   0  0  0  0  0  0  0  0  0  0  0  0
   -5.5787   31.7462  -29.9763 C   0  0  0  0  0  0  0  0  0  0  0  0
   -5.3636   32.0236  -31.4653 C   0  0  0  0  0  0  0  0  0  0  0  0
   -1.1124   24.0506  -30.3318 Cl  0  0  0  0  0  0  0  0  0  0  0  0
   -4.3865   31.7887  -31.8874 H   0  0  0  0  0  0  0  0  0  0  0  0
   -7.3054   30.9413  -31.1624 H   0  0  0  0  0  0  0  0  0  0  0  0
   -5.8627   32.8962  -31.8829 H   0  0  0  0  0  0  0  0  0  0  0  0
   -1.4436   21.1321  -26.4786 H   0  0  0  0  0  0  0  0  0  0  0  0
   -0.2591   22.6635  -28.0157 H   0  0  0  0  0  0  0  0  0  0  0  0
   -3.8111   20.5610  -26.8909 H   0  0  0  0  0  0  0  0  0  0  0  0
   -4.3168   24.9848  -29.8393 H   0  0  0  0  0  0  0  0  0  0  0  0
   -5.8400   23.4993  -32.9094 H   0  0  0  0  0  0  0  0  0  0  0  0
   -7.3119   24.9439  -34.3018 H   0  0  0  0  0  0  0  0  0  0  0  0
   -5.0645   26.9093  -30.4313 H   0  0  0  0  0  0  0  0  0  0  0  0
   -7.4045   29.0126  -32.1802 H   0  0  0  0  0  0  0  0  0  0  0  0
   -6.3523   32.2035  -29.3584 H   0  0  0  0  0  0  0  0  0  0  0  0
   -4.9174   31.1488  -29.3474 H   0  0  0  0  0  0  0  0  0  0  0  0
  1  2  2  0
  1  6  1  0
  2  3  1  0
  3  4  2  0
  3 23  1  0
  4  5  1  0
  4  8  1  0
  5  6  2  0
  5  7  1  0
  8  9  2  0
  8 10  1  0
 10 11  1  0
 11 12  2  0
 11 16  1  0
 12 13  1  0
 13 14  2  0
 14 15  1  0
 15 16  2  0
 15 17  1  0
 17 18  1  0
 18 19  2  0
 18 20  1  0
 20 21  1  0
 20 22  1  0
 21 22  1  0
  1 27  1  0
  2 28  1  0
  6 29  1  0
 10 30  1  0
 12 31  1  0
 13 32  1  0
 16 33  1  0
 17 34  1  0
 20 25  1  0
 21 35  1  0
 21 36  1  0
 22 24  1  0
 22 26  1  0
M  END
>  <r_user_dG.exp>
-11.31

>  <Total Formal Charge>
0.0

>  <Favorite_cresset>
false

>  <MW_cresset>
350.2

>  <#Atoms_cresset>
23

>  <SlogP_cresset>
4

>  <TPSA_cresset>
71.1

>  <Flexibility_cresset>
1.8

>  <Rof5_cresset>
0

>  <Confs_cresset>
0

>  <Poses_cresset>
0

$$$$
ejm_55
  xed2sdf           3D
 
 33 34  0  0  0  0  0  0  0  0999 V2000
   -1.9612   21.5502  -27.3300 C   0  0  0  0  0  0  0  0  0  0  0  0
   -1.2942   22.4120  -28.1957 C   0  0  0  0  0  0  0  0  0  0  0  0
   -1.9550   22.9520  -29.2938 C   0  0  0  0  0  0  0  0  0  0  0  0
   -3.2998   22.6223  -29.5426 C   0  0  0  0  0  0  0  0  0  0  0  0
   -3.9689   21.7588  -28.6534 C   0  0  0  0  0  0  0  0  0  0  0  0
   -3.2917   21.2292  -27.5624 C   0  0  0  0  0  0  0  0  0  0  0  0
   -5.6403   21.3533  -28.9190 Cl  0  0  0  0  0  0  0  0  0  0  0  0
   -4.0401   23.1522  -30.7110 C   0  0  0  0  0  0  0  0  0  0  0  0
   -4.2265   22.4198  -31.6685 O   0  0  0  0  0  0  0  0  0  0  0  0
   -4.5133   24.4119  -30.6476 N   0  0  0  0  0  0  0  0  0  0  0  0
   -5.2869   25.1112  -31.5800 C   0  0  0  0  0  0  0  0  0  0  0  0
   -5.9620   24.5479  -32.6807 C   0  0  0  0  0  0  0  0  0  0  0  0
   -6.7806   25.3609  -33.4589 C   0  0  0  0  0  0  0  0  0  0  0  0
   -6.9234   26.6542  -33.1828 N   0  0  0  0  0  0  0  0  0  0  0  0
   -6.2984   27.2317  -32.1577 C   0  0  0  0  0  0  0  0  0  0  0  0
   -5.5070   26.4571  -31.3066 C   0  0  0  0  0  0  0  0  0  0  0  0
   -6.5391   28.5828  -31.8838 N   0  0  0  0  0  0  0  0  0  0  0  0
   -5.7134   29.4445  -31.2331 C   0  0  0  0  0  0  0  0  0  0  0  0
   -4.6156   29.1218  -30.8098 O   0  0  0  0  0  0  0  0  0  0  0  0
   -1.1124   24.0506  -30.3318 Cl  0  0  0  0  0  0  0  0  0  0  0  0
   -5.1871   31.8542  -30.6778 C   0  0  0  0  0  0  0  0  0  0  0  0
   -6.2503   30.8477  -31.0335 O   0  0  0  0  0  0  0  0  0  0  0  0
   -1.4436   21.1321  -26.4786 H   0  0  0  0  0  0  0  0  0  0  0  0
   -0.2591   22.6635  -28.0157 H   0  0  0  0  0  0  0  0  0  0  0  0
   -3.8111   20.5610  -26.8909 H   0  0  0  0  0  0  0  0  0  0  0  0
   -4.3168   24.9848  -29.8393 H   0  0  0  0  0  0  0  0  0  0  0  0
   -5.8400   23.4993  -32.9094 H   0  0  0  0  0  0  0  0  0  0  0  0
   -7.3119   24.9439  -34.3018 H   0  0  0  0  0  0  0  0  0  0  0  0
   -5.0645   26.9093  -30.4313 H   0  0  0  0  0  0  0  0  0  0  0  0
   -7.4045   29.0126  -32.1802 H   0  0  0  0  0  0  0  0  0  0  0  0
   -5.5878   32.8578  -30.8199 H   0  0  0  0  0  0  0  0  0  0  0  0
   -4.9066   31.7200  -29.6331 H   0  0  0  0  0  0  0  0  0  0  0  0
   -4.3149   31.7110  -31.3157 H   0  0  0  0  0  0  0  0  0  0  0  0
  1  2  2  0
  1  6  1  0
  2  3  1  0
  3  4  2  0
  3 20  1  0
  4  5  1  0
  4  8  1  0
  5  6  2  0
  5  7  1  0
  8  9  2  0
  8 10  1  0
 10 11  1  0
 11 12  2  0
 11 16  1  0
 12 13  1  0
 13 14  2  0
 14 15  1  0
 15 16  2  0
 15 17  1  0
 17 18  1  0
 18 19  2  0
 18 22  1  0
 21 22  1  0
  1 23  1  0
  2 24  1  0
  6 25  1  0
 10 26  1  0
 12 27  1  0
 13 28  1  0
 16 29  1  0
 17 30  1  0
 21 31  1  0
 21 32  1  0
 21 33  1  0
M  END
>  <r_user_dG.exp>
-9.21

>  <Total Formal Charge>
0.0

>  <Favorite_cresset>
false

>  <MW_cresset>
340.2

>  <#Atoms_cresset>
22

>  <SlogP_cresset>
3.9

>  <TPSA_cresset>
80.3

>  <Flexibility_cresset>
1.3

>  <Rof5_cresset>
0

>  <Confs_cresset>
0

>  <Poses_cresset>
0

$$$$
ejm_43
  xed2sdf           3D
 
 38 39  0  0  0  0  0  0  0  0999 V2000
   -1.9612   21.5502  -27.3300 C   0  0  0  0  0  0  0  0  0  0  0  0
   -1.2942   22.4120  -28.1957 C   0  0  0  0  0  0  0  0  0  0  0  0
   -1.9550   22.9520  -29.2938 C   0  0  0  0  0  0  0  0  0  0  0  0
   -3.2998   22.6223  -29.5426 C   0  0  0  0  0  0  0  0  0  0  0  0
   -3.9689   21.7588  -28.6534 C   0  0  0  0  0  0  0  0  0  0  0  0
   -3.2917   21.2292  -27.5624 C   0  0  0  0  0  0  0  0  0  0  0  0
   -5.6403   21.3533  -28.9190 Cl  0  0  0  0  0  0  0  0  0  0  0  0
   -4.0401   23.1522  -30.7110 C   0  0  0  0  0  0  0  0  0  0  0  0
   -4.2265   22.4198  -31.6685 O   0  0  0  0  0  0  0  0  0  0  0  0
   -4.5133   24.4119  -30.6476 N   0  0  0  0  0  0  0  0  0  0  0  0
   -5.2869   25.1112  -31.5800 C   0  0  0  0  0  0  0  0  0  0  0  0
   -5.9620   24.5479  -32.6807 C   0  0  0  0  0  0  0  0  0  0  0  0
   -6.7806   25.3609  -33.4589 C   0  0  0  0  0  0  0  0  0  0  0  0
   -6.9234   26.6542  -33.1828 N   0  0  0  0  0  0  0  0  0  0  0  0
   -6.2984   27.2317  -32.1577 C   0  0  0  0  0  0  0  0  0  0  0  0
   -5.5070   26.4571  -31.3066 C   0  0  0  0  0  0  0  0  0  0  0  0
   -6.5391   28.5828  -31.8838 N   0  0  0  0  0  0  0  0  0  0  0  0
   -5.7134   29.4445  -31.2331 C   0  0  0  0  0  0  0  0  0  0  0  0
   -4.6156   29.1218  -30.8098 O   0  0  0  0  0  0  0  0  0  0  0  0
   -6.2319   30.8471  -31.0310 C   0  0  0  0  0  0  0  0  0  0  0  0
   -1.1124   24.0506  -30.3318 Cl  0  0  0  0  0  0  0  0  0  0  0  0
   -6.9632   31.4003  -32.2181 C   0  0  0  0  0  0  0  0  0  0  0  0
   -5.0894   31.7546  -30.6833 C   0  0  0  0  0  0  0  0  0  0  0  0
   -1.4436   21.1321  -26.4786 H   0  0  0  0  0  0  0  0  0  0  0  0
   -0.2591   22.6635  -28.0157 H   0  0  0  0  0  0  0  0  0  0  0  0
   -3.8111   20.5610  -26.8909 H   0  0  0  0  0  0  0  0  0  0  0  0
   -4.3168   24.9848  -29.8393 H   0  0  0  0  0  0  0  0  0  0  0  0
   -5.8400   23.4993  -32.9094 H   0  0  0  0  0  0  0  0  0  0  0  0
   -7.3119   24.9439  -34.3018 H   0  0  0  0  0  0  0  0  0  0  0  0
   -5.0645   26.9093  -30.4313 H   0  0  0  0  0  0  0  0  0  0  0  0
   -7.4045   29.0126  -32.1801 H   0  0  0  0  0  0  0  0  0  0  0  0
   -6.8876   30.8681  -30.1605 H   0  0  0  0  0  0  0  0  0  0  0  0
   -5.4617   32.7685  -30.5367 H   0  0  0  0  0  0  0  0  0  0  0  0
   -4.6143   31.4065  -29.7661 H   0  0  0  0  0  0  0  0  0  0  0  0
   -4.3607   31.7493  -31.4939 H   0  0  0  0  0  0  0  0  0  0  0  0
   -7.3052   32.4110  -31.9961 H   0  0  0  0  0  0  0  0  0  0  0  0
   -6.2945   31.4242  -33.0786 H   0  0  0  0  0  0  0  0  0  0  0  0
   -7.8219   30.7680  -32.4435 H   0  0  0  0  0  0  0  0  0  0  0  0
  1  2  2  0
  1  6  1  0
  2  3  1  0
  3  4  2  0
  3 21  1  0
  4  5  1  0
  4  8  1  0
  5  6  2  0
  5  7  1  0
  8  9  2  0
  8 10  1  0
 10 11  1  0
 11 12  2  0
 11 16  1  0
 12 13  1  0
 13 14  2  0
 14 15  1  0
 15 16  2  0
 15 17  1  0
 17 18  1  0
 18 19  2  0
 18 20  1  0
 20 22  1  0
 20 23  1  0
  1 24  1  0
  2 25  1  0
  6 26  1  0
 10 27  1  0
 12 28  1  0
 13 29  1  0
 16 30  1  0
 17 31  1  0
 20 32  1  0
 22 36  1  0
 22 37  1  0
 22 38  1  0
 23 33  1  0
 23 34  1  0
 23 35  1  0
M  END
>  <r_user_dG.exp>
-8.26

>  <Total Formal Charge>
0.0

>  <Favorite_cresset>
false

>  <MW_cresset>
352.2

>  <#Atoms_cresset>
23

>  <SlogP_cresset>
4.3

>  <TPSA_cresset>
71.1

>  <Flexibility_cresset>
1.8

>  <Rof5_cresset>
0

>  <Confs_cresset>
0

>  <Poses_cresset>
0

$$$$
jmc_28
  xed2sdf           3D
 
 39 41  0  0  1  0  0  0  0  0999 V2000
   -1.9612   21.5502  -27.3300 C   0  0  0  0  0  0  0  0  0  0  0  0
   -1.2942   22.4120  -28.1957 C   0  0  0  0  0  0  0  0  0  0  0  0
   -1.9550   22.9520  -29.2938 C   0  0  0  0  0  0  0  0  0  0  0  0
   -3.2998   22.6223  -29.5426 C   0  0  0  0  0  0  0  0  0  0  0  0
   -3.9689   21.7588  -28.6534 C   0  0  0  0  0  0  0  0  0  0  0  0
   -3.2917   21.2292  -27.5624 C   0  0  0  0  0  0  0  0  0  0  0  0
   -5.6403   21.3533  -28.9190 Cl  0  0  0  0  0  0  0  0  0  0  0  0
   -4.0401   23.1522  -30.7110 C   0  0  0  0  0  0  0  0  0  0  0  0
   -4.2265   22.4198  -31.6685 O   0  0  0  0  0  0  0  0  0  0  0  0
   -4.5133   24.4119  -30.6476 N   0  0  0  0  0  0  0  0  0  0  0  0
   -5.2869   25.1112  -31.5800 C   0  0  0  0  0  0  0  0  0  0  0  0
   -5.9620   24.5479  -32.6807 C   0  0  0  0  0  0  0  0  0  0  0  0
   -6.7806   25.3609  -33.4589 C   0  0  0  0  0  0  0  0  0  0  0  0
   -6.9234   26.6542  -33.1828 N   0  0  0  0  0  0  0  0  0  0  0  0
   -6.2984   27.2317  -32.1577 C   0  0  0  0  0  0  0  0  0  0  0  0
   -5.5070   26.4571  -31.3066 C   0  0  0  0  0  0  0  0  0  0  0  0
   -6.5391   28.5828  -31.8838 N   0  0  0  0  0  0  0  0  0  0  0  0
   -5.7134   29.4445  -31.2331 C   0  0  0  0  0  0  0  0  0  0  0  0
   -4.6156   29.1218  -30.8098 O   0  0  0  0  0  0  0  0  0  0  0  0
   -6.2319   30.8471  -31.0310 C   0  0  0  0  0  0  0  0  0  0  0  0
   -5.5787   31.7462  -29.9763 C   0  0  0  0  0  0  0  0  0  0  0  0
   -5.3636   32.0236  -31.4653 C   0  0  0  0  0  0  0  0  0  0  0  0
   -4.0190   31.7003  -32.0462 C   0  0  0  0  0  0  0  0  0  0  0  0
   -1.1124   24.0506  -30.3318 Cl  0  0  0  0  0  0  0  0  0  0  0  0
   -7.3054   30.9413  -31.1624 H   0  0  0  0  0  0  0  0  0  0  0  0
   -5.8627   32.8962  -31.8829 H   0  0  0  0  0  0  0  0  0  0  0  0
   -1.4436   21.1321  -26.4786 H   0  0  0  0  0  0  0  0  0  0  0  0
   -0.2591   22.6635  -28.0157 H   0  0  0  0  0  0  0  0  0  0  0  0
   -3.8111   20.5610  -26.8909 H   0  0  0  0  0  0  0  0  0  0  0  0
   -4.3168   24.9848  -29.8393 H   0  0  0  0  0  0  0  0  0  0  0  0
   -5.8400   23.4993  -32.9094 H   0  0  0  0  0  0  0  0  0  0  0  0
   -7.3119   24.9439  -34.3018 H   0  0  0  0  0  0  0  0  0  0  0  0
   -5.0645   26.9093  -30.4313 H   0  0  0  0  0  0  0  0  0  0  0  0
   -7.4045   29.0126  -32.1802 H   0  0  0  0  0  0  0  0  0  0  0  0
   -6.3523   32.2035  -29.3584 H   0  0  0  0  0  0  0  0  0  0  0  0
   -4.9174   31.1488  -29.3474 H   0  0  0  0  0  0  0  0  0  0  0  0
   -3.5059   32.6244  -32.3125 H   0  0  0  0  0  0  0  0  0  0  0  0
   -3.4266   31.1553  -31.3112 H   0  0  0  0  0  0  0  0  0  0  0  0
   -4.1459   31.0859  -32.9375 H   0  0  0  0  0  0  0  0  0  0  0  0
  1  2  2  0
  1  6  1  0
  2  3  1  0
  3  4  2  0
  3 24  1  0
  4  5  1  0
  4  8  1  0
  5  6  2  0
  5  7  1  0
  8  9  2  0
  8 10  1  0
 10 11  1  0
 11 12  2  0
 11 16  1  0
 12 13  1  0
 13 14  2  0
 14 15  1  0
 15 16  2  0
 15 17  1  0
 17 18  1  0
 18 19  2  0
 18 20  1  0
 20 21  1  0
 20 22  1  0
 21 22  1  0
 22 23  1  0
  1 27  1  0
  2 28  1  0
  6 29  1  0
 10 30  1  0
 12 31  1  0
 13 32  1  0
 16 33  1  0
 17 34  1  0
 20 25  1  0
 21 35  1  0
 21 36  1  0
 22 26  1  0
 23 37  1  0
 23 38  1  0
 23 39  1  0
M  END
>  <r_user_dG.exp>
-10.98

>  <Total Formal Charge>
0.0

>  <Favorite_cresset>
false

>  <MW_cresset>
364.2

>  <#Atoms_cresset>
24

>  <SlogP_cresset>
4.3

>  <TPSA_cresset>
71.1

>  <Flexibility_cresset>
1.8

>  <Rof5_cresset>
0

>  <Confs_cresset>
0

>  <Poses_cresset>
0

$$$$
ejm_49
  xed2sdf           3D
 
 39 41  0  0  0  0  0  0  0  0999 V2000
   -1.9612   21.5502  -27.3300 C   0  0  0  0  0  0  0  0  0  0  0  0
   -1.2942   22.4120  -28.1957 C   0  0  0  0  0  0  0  0  0  0  0  0
   -1.9550   22.9520  -29.2938 C   0  0  0  0  0  0  0  0  0  0  0  0
   -3.2998   22.6223  -29.5426 C   0  0  0  0  0  0  0  0  0  0  0  0
   -3.9689   21.7588  -28.6534 C   0  0  0  0  0  0  0  0  0  0  0  0
   -3.2917   21.2292  -27.5624 C   0  0  0  0  0  0  0  0  0  0  0  0
   -5.6403   21.3533  -28.9190 Cl  0  0  0  0  0  0  0  0  0  0  0  0
   -4.0401   23.1522  -30.7110 C   0  0  0  0  0  0  0  0  0  0  0  0
   -4.2265   22.4198  -31.6685 O   0  0  0  0  0  0  0  0  0  0  0  0
   -4.5133   24.4119  -30.6476 N   0  0  0  0  0  0  0  0  0  0  0  0
   -5.2869   25.1112  -31.5800 C   0  0  0  0  0  0  0  0  0  0  0  0
   -5.9620   24.5479  -32.6807 C   0  0  0  0  0  0  0  0  0  0  0  0
   -6.7806   25.3609  -33.4589 C   0  0  0  0  0  0  0  0  0  0  0  0
   -6.9234   26.6542  -33.1828 N   0  0  0  0  0  0  0  0  0  0  0  0
   -6.2984   27.2317  -32.1577 C   0  0  0  0  0  0  0  0  0  0  0  0
   -5.5070   26.4571  -31.3066 C   0  0  0  0  0  0  0  0  0  0  0  0
   -6.5391   28.5828  -31.8838 N   0  0  0  0  0  0  0  0  0  0  0  0
   -5.7134   29.4445  -31.2331 C   0  0  0  0  0  0  0  0  0  0  0  0
   -4.6156   29.1218  -30.8098 O   0  0  0  0  0  0  0  0  0  0  0  0
   -1.1124   24.0506  -30.3318 Cl  0  0  0  0  0  0  0  0  0  0  0  0
   -7.0259   33.5314  -30.6164 C   0  0  0  0  0  0  0  0  0  0  0  0
   -7.2461   32.9020  -31.8526 C   0  0  0  0  0  0  0  0  0  0  0  0
   -6.8210   31.5783  -32.0524 C   0  0  0  0  0  0  0  0  0  0  0  0
   -6.1757   30.8841  -31.0159 C   0  0  0  0  0  0  0  0  0  0  0  0
   -5.9555   31.5134  -29.7797 C   0  0  0  0  0  0  0  0  0  0  0  0
   -6.3806   32.8371  -29.5799 C   0  0  0  0  0  0  0  0  0  0  0  0
   -1.4436   21.1321  -26.4786 H   0  0  0  0  0  0  0  0  0  0  0  0
   -0.2591   22.6635  -28.0157 H   0  0  0  0  0  0  0  0  0  0  0  0
   -3.8111   20.5610  -26.8909 H   0  0  0  0  0  0  0  0  0  0  0  0
   -4.3168   24.9848  -29.8393 H   0  0  0  0  0  0  0  0  0  0  0  0
   -5.8400   23.4993  -32.9094 H   0  0  0  0  0  0  0  0  0  0  0  0
   -7.3119   24.9439  -34.3018 H   0  0  0  0  0  0  0  0  0  0  0  0
   -5.0645   26.9093  -30.4313 H   0  0  0  0  0  0  0  0  0  0  0  0
   -7.4045   29.0126  -32.1802 H   0  0  0  0  0  0  0  0  0  0  0  0
   -7.3599   34.5713  -30.4595 H   0  0  0  0  0  0  0  0  0  0  0  0
   -7.7531   33.4474  -32.6669 H   0  0  0  0  0  0  0  0  0  0  0  0
   -6.9940   31.0839  -33.0235 H   0  0  0  0  0  0  0  0  0  0  0  0
   -5.4486   30.9679  -28.9655 H   0  0  0  0  0  0  0  0  0  0  0  0
   -6.2076   33.3315  -28.6088 H   0  0  0  0  0  0  0  0  0  0  0  0
  1  2  2  0
  1  6  1  0
  2  3  1  0
  3  4  2  0
  3 20  1  0
  4  5  1  0
  4  8  1  0
  5  6  2  0
  5  7  1  0
  8  9  2  0
  8 10  1  0
 10 11  1  0
 11 12  2  0
 11 16  1  0
 12 13  1  0
 13 14  2  0
 14 15  1  0
 15 16  2  0
 15 17  1  0
 17 18  1  0
 18 19  2  0
 18 24  1  0
 21 22  2  0
 21 26  1  0
 22 23  1  0
 23 24  2  0
 24 25  1  0
 25 26  2  0
  1 27  1  0
  2 28  1  0
  6 29  1  0
 10 30  1  0
 12 31  1  0
 13 32  1  0
 16 33  1  0
 17 34  1  0
 21 35  1  0
 22 36  1  0
 23 37  1  0
 25 38  1  0
 26 39  1  0
M  END
>  <r_user_dG.exp>
-7.75

>  <Total Formal Charge>
0.0

>  <Favorite_cresset>
false

>  <MW_cresset>
386.2

>  <#Atoms_cresset>
26

>  <SlogP_cresset>
4.9

>  <TPSA_cresset>
71.1

>  <Flexibility_cresset>
1

>  <Rof5_cresset>
0

>  <Confs_cresset>
0

>  <Poses_cresset>
0

$$$$
ejm_45
  xed2sdf           3D
 
 39 41  0  0  0  0  0  0  0  0999 V2000
   -1.9612   21.5502  -27.3300 C   0  0  0  0  0  0  0  0  0  0  0  0
   -1.2942   22.4120  -28.1957 C   0  0  0  0  0  0  0  0  0  0  0  0
   -1.9550   22.9520  -29.2938 C   0  0  0  0  0  0  0  0  0  0  0  0
   -3.2998   22.6223  -29.5426 C   0  0  0  0  0  0  0  0  0  0  0  0
   -3.9689   21.7588  -28.6534 C   0  0  0  0  0  0  0  0  0  0  0  0
   -3.2917   21.2292  -27.5624 C   0  0  0  0  0  0  0  0  0  0  0  0
   -5.6403   21.3533  -28.9190 Cl  0  0  0  0  0  0  0  0  0  0  0  0
   -4.0401   23.1522  -30.7110 C   0  0  0  0  0  0  0  0  0  0  0  0
   -4.2265   22.4198  -31.6685 O   0  0  0  0  0  0  0  0  0  0  0  0
   -4.5133   24.4119  -30.6476 N   0  0  0  0  0  0  0  0  0  0  0  0
   -5.2869   25.1112  -31.5800 C   0  0  0  0  0  0  0  0  0  0  0  0
   -5.9620   24.5479  -32.6807 C   0  0  0  0  0  0  0  0  0  0  0  0
   -6.7806   25.3609  -33.4589 C   0  0  0  0  0  0  0  0  0  0  0  0
   -6.9234   26.6542  -33.1828 N   0  0  0  0  0  0  0  0  0  0  0  0
   -6.2984   27.2317  -32.1577 C   0  0  0  0  0  0  0  0  0  0  0  0
   -5.5070   26.4571  -31.3066 C   0  0  0  0  0  0  0  0  0  0  0  0
   -6.5391   28.5828  -31.8838 N   0  0  0  0  0  0  0  0  0  0  0  0
   -5.7134   29.4445  -31.2331 C   0  0  0  0  0  0  0  0  0  0  0  0
   -4.6156   29.1218  -30.8098 O   0  0  0  0  0  0  0  0  0  0  0  0
   -6.2319   30.8471  -31.0310 C   0  0  0  0  0  0  0  0  0  0  0  0
   -1.1124   24.0506  -30.3318 Cl  0  0  0  0  0  0  0  0  0  0  0  0
   -5.1449   31.7586  -30.6906 C   0  0  0  0  0  0  0  0  0  0  0  0
   -4.0146   31.2150  -29.8569 C   0  0  0  0  0  0  0  0  0  0  0  0
   -3.7999   31.5051  -31.3190 C   0  0  0  0  0  0  0  0  0  0  0  0
   -6.7611   31.2474  -31.8901 H   0  0  0  0  0  0  0  0  0  0  0  0
   -1.4436   21.1321  -26.4786 H   0  0  0  0  0  0  0  0  0  0  0  0
   -0.2591   22.6635  -28.0157 H   0  0  0  0  0  0  0  0  0  0  0  0
   -3.8111   20.5610  -26.8909 H   0  0  0  0  0  0  0  0  0  0  0  0
   -4.3168   24.9848  -29.8393 H   0  0  0  0  0  0  0  0  0  0  0  0
   -5.8400   23.4993  -32.9094 H   0  0  0  0  0  0  0  0  0  0  0  0
   -7.3119   24.9439  -34.3018 H   0  0  0  0  0  0  0  0  0  0  0  0
   -5.0645   26.9093  -30.4313 H   0  0  0  0  0  0  0  0  0  0  0  0
   -7.4045   29.0126  -32.1802 H   0  0  0  0  0  0  0  0  0  0  0  0
   -6.8876   30.8681  -30.1605 H   0  0  0  0  0  0  0  0  0  0  0  0
   -5.4617   32.7686  -30.5367 H   0  0  0  0  0  0  0  0  0  0  0  0
   -3.5458   31.9321  -29.1428 H   0  0  0  0  0  0  0  0  0  0  0  0
   -4.0876   30.1375  -29.5784 H   0  0  0  0  0  0  0  0  0  0  0  0
   -3.1919   32.4103  -31.5532 H   0  0  0  0  0  0  0  0  0  0  0  0
   -3.7337   30.6157  -31.9888 H   0  0  0  0  0  0  0  0  0  0  0  0
  1  2  2  0
  1  6  1  0
  2  3  1  0
  3  4  2  0
  3 21  1  0
  4  5  1  0
  4  8  1  0
  5  6  2  0
  5  7  1  0
  8  9  2  0
  8 10  1  0
 10 11  1  0
 11 12  2  0
 11 16  1  0
 12 13  1  0
 13 14  2  0
 14 15  1  0
 15 16  2  0
 15 17  1  0
 17 18  1  0
 18 19  2  0
 18 20  1  0
 20 22  1  0
 22 23  1  0
 22 24  1  0
 23 24  1  0
  1 26  1  0
  2 27  1  0
  6 28  1  0
 10 29  1  0
 12 30  1  0
 13 31  1  0
 16 32  1  0
 17 33  1  0
 20 25  1  0
 20 34  1  0
 23 36  1  0
 23 37  1  0
 24 38  1  0
 24 39  1  0
 35 22  1  0
M  END
>  <r_user_dG.exp>
-9.56

>  <Total Formal Charge>
0.0

>  <Favorite_cresset>
false

>  <MW_cresset>
364.2

>  <#Atoms_cresset>
24

>  <SlogP_cresset>
4.4

>  <TPSA_cresset>
71.1

>  <Flexibility_cresset>
2.8

>  <Rof5_cresset>
0

>  <Confs_cresset>
0

>  <Poses_cresset>
0

$$$$
ejm_44
  xed2sdf           3D
 
 41 42  0  0  0  0  0  0  0  0999 V2000
   -1.9612   21.5502  -27.3300 C   0  0  0  0  0  0  0  0  0  0  0  0
   -1.2942   22.4120  -28.1957 C   0  0  0  0  0  0  0  0  0  0  0  0
   -1.9550   22.9520  -29.2938 C   0  0  0  0  0  0  0  0  0  0  0  0
   -3.2998   22.6223  -29.5426 C   0  0  0  0  0  0  0  0  0  0  0  0
   -3.9689   21.7588  -28.6534 C   0  0  0  0  0  0  0  0  0  0  0  0
   -3.2917   21.2292  -27.5624 C   0  0  0  0  0  0  0  0  0  0  0  0
   -5.6403   21.3533  -28.9190 Cl  0  0  0  0  0  0  0  0  0  0  0  0
   -4.0401   23.1522  -30.7110 C   0  0  0  0  0  0  0  0  0  0  0  0
   -4.2265   22.4198  -31.6685 O   0  0  0  0  0  0  0  0  0  0  0  0
   -4.5133   24.4119  -30.6476 N   0  0  0  0  0  0  0  0  0  0  0  0
   -5.2869   25.1112  -31.5800 C   0  0  0  0  0  0  0  0  0  0  0  0
   -5.9620   24.5479  -32.6807 C   0  0  0  0  0  0  0  0  0  0  0  0
   -6.7806   25.3609  -33.4589 C   0  0  0  0  0  0  0  0  0  0  0  0
   -6.9234   26.6542  -33.1828 N   0  0  0  0  0  0  0  0  0  0  0  0
   -6.2984   27.2317  -32.1577 C   0  0  0  0  0  0  0  0  0  0  0  0
   -5.5070   26.4571  -31.3066 C   0  0  0  0  0  0  0  0  0  0  0  0
   -6.5391   28.5828  -31.8838 N   0  0  0  0  0  0  0  0  0  0  0  0
   -5.7134   29.4445  -31.2331 C   0  0  0  0  0  0  0  0  0  0  0  0
   -4.6156   29.1218  -30.8098 O   0  0  0  0  0  0  0  0  0  0  0  0
   -6.2319   30.8471  -31.0310 C   0  0  0  0  0  0  0  0  0  0  0  0
   -1.1124   24.0506  -30.3318 Cl  0  0  0  0  0  0  0  0  0  0  0  0
   -6.9632   31.4003  -32.2181 C   0  0  0  0  0  0  0  0  0  0  0  0
   -5.0894   31.7546  -30.6833 C   0  0  0  0  0  0  0  0  0  0  0  0
   -7.1343   30.8760  -29.8331 C   0  0  0  0  0  0  0  0  0  0  0  0
   -1.4436   21.1321  -26.4786 H   0  0  0  0  0  0  0  0  0  0  0  0
   -0.2591   22.6635  -28.0157 H   0  0  0  0  0  0  0  0  0  0  0  0
   -3.8111   20.5610  -26.8909 H   0  0  0  0  0  0  0  0  0  0  0  0
   -4.3168   24.9848  -29.8393 H   0  0  0  0  0  0  0  0  0  0  0  0
   -5.8400   23.4993  -32.9094 H   0  0  0  0  0  0  0  0  0  0  0  0
   -7.3119   24.9439  -34.3018 H   0  0  0  0  0  0  0  0  0  0  0  0
   -5.0645   26.9093  -30.4312 H   0  0  0  0  0  0  0  0  0  0  0  0
   -7.4045   29.0126  -32.1802 H   0  0  0  0  0  0  0  0  0  0  0  0
   -5.4617   32.7685  -30.5367 H   0  0  0  0  0  0  0  0  0  0  0  0
   -4.6143   31.4065  -29.7661 H   0  0  0  0  0  0  0  0  0  0  0  0
   -4.3607   31.7493  -31.4939 H   0  0  0  0  0  0  0  0  0  0  0  0
   -7.3052   32.4110  -31.9961 H   0  0  0  0  0  0  0  0  0  0  0  0
   -6.2945   31.4242  -33.0786 H   0  0  0  0  0  0  0  0  0  0  0  0
   -7.8219   30.7680  -32.4435 H   0  0  0  0  0  0  0  0  0  0  0  0
   -7.5101   31.8884  -29.6851 H   0  0  0  0  0  0  0  0  0  0  0  0
   -7.9724   30.1975  -29.9924 H   0  0  0  0  0  0  0  0  0  0  0  0
   -6.5770   30.5632  -28.9501 H   0  0  0  0  0  0  0  0  0  0  0  0
  1  2  2  0
  1  6  1  0
  2  3  1  0
  3  4  2  0
  3 21  1  0
  4  5  1  0
  4  8  1  0
  5  6  2  0
  5  7  1  0
  8  9  2  0
  8 10  1  0
 10 11  1  0
 11 12  2  0
 11 16  1  0
 12 13  1  0
 13 14  2  0
 14 15  1  0
 15 16  2  0
 15 17  1  0
 17 18  1  0
 18 19  2  0
 18 20  1  0
 20 22  1  0
 20 23  1  0
 20 24  1  0
  1 25  1  0
  2 26  1  0
  6 27  1  0
 10 28  1  0
 12 29  1  0
 13 30  1  0
 16 31  1  0
 17 32  1  0
 22 36  1  0
 22 37  1  0
 22 38  1  0
 23 33  1  0
 23 34  1  0
 23 35  1  0
 24 39  1  0
 24 40  1  0
 24 41  1  0
M  END
>  <r_user_dG.exp>
-7.42

>  <Total Formal Charge>
0.0

>  <Favorite_cresset>
false

>  <MW_cresset>
366.2

>  <#Atoms_cresset>
24

>  <SlogP_cresset>
4.7

>  <TPSA_cresset>
71.1

>  <Flexibility_cresset>
0.8

>  <Rof5_cresset>
0

>  <Confs_cresset>
0

>  <Poses_cresset>
0

$$$$
jmc_27
  xed2sdf           3D
 
 36 38  0  0  1  0  0  0  0  0999 V2000
   -1.9612   21.5502  -27.3300 C   0  0  0  0  0  0  0  0  0  0  0  0
   -1.2942   22.4120  -28.1957 C   0  0  0  0  0  0  0  0  0  0  0  0
   -1.9550   22.9520  -29.2938 C   0  0  0  0  0  0  0  0  0  0  0  0
   -3.2998   22.6223  -29.5426 C   0  0  0  0  0  0  0  0  0  0  0  0
   -3.9689   21.7588  -28.6534 C   0  0  0  0  0  0  0  0  0  0  0  0
   -3.2917   21.2292  -27.5624 C   0  0  0  0  0  0  0  0  0  0  0  0
   -5.6403   21.3533  -28.9190 Cl  0  0  0  0  0  0  0  0  0  0  0  0
   -4.0401   23.1522  -30.7110 C   0  0  0  0  0  0  0  0  0  0  0  0
   -4.2265   22.4198  -31.6685 O   0  0  0  0  0  0  0  0  0  0  0  0
   -4.5133   24.4119  -30.6476 N   0  0  0  0  0  0  0  0  0  0  0  0
   -5.2869   25.1112  -31.5800 C   0  0  0  0  0  0  0  0  0  0  0  0
   -5.9620   24.5479  -32.6807 C   0  0  0  0  0  0  0  0  0  0  0  0
   -6.7806   25.3609  -33.4589 C   0  0  0  0  0  0  0  0  0  0  0  0
   -6.9234   26.6542  -33.1828 N   0  0  0  0  0  0  0  0  0  0  0  0
   -6.2984   27.2317  -32.1577 C   0  0  0  0  0  0  0  0  0  0  0  0
   -5.5070   26.4571  -31.3066 C   0  0  0  0  0  0  0  0  0  0  0  0
   -6.5391   28.5828  -31.8838 N   0  0  0  0  0  0  0  0  0  0  0  0
   -5.7134   29.4445  -31.2331 C   0  0  0  0  0  0  0  0  0  0  0  0
   -4.6156   29.1218  -30.8098 O   0  0  0  0  0  0  0  0  0  0  0  0
   -6.2319   30.8471  -31.0310 C   0  0  0  0  0  0  0  0  0  0  0  0
   -5.5787   31.7462  -29.9763 C   0  0  0  0  0  0  0  0  0  0  0  0
   -5.3636   32.0236  -31.4653 C   0  0  0  0  0  0  0  0  0  0  0  0
   -3.7545   31.6367  -32.1604 Cl  0  0  0  0  0  0  0  0  0  0  0  0
   -1.1124   24.0506  -30.3318 Cl  0  0  0  0  0  0  0  0  0  0  0  0
   -7.3054   30.9413  -31.1624 H   0  0  0  0  0  0  0  0  0  0  0  0
   -5.8627   32.8962  -31.8829 H   0  0  0  0  0  0  0  0  0  0  0  0
   -1.4436   21.1321  -26.4786 H   0  0  0  0  0  0  0  0  0  0  0  0
   -0.2591   22.6635  -28.0157 H   0  0  0  0  0  0  0  0  0  0  0  0
   -3.8111   20.5610  -26.8909 H   0  0  0  0  0  0  0  0  0  0  0  0
   -4.3168   24.9848  -29.8393 H   0  0  0  0  0  0  0  0  0  0  0  0
   -5.8400   23.4993  -32.9094 H   0  0  0  0  0  0  0  0  0  0  0  0
   -7.3119   24.9439  -34.3018 H   0  0  0  0  0  0  0  0  0  0  0  0
   -5.0645   26.9093  -30.4313 H   0  0  0  0  0  0  0  0  0  0  0  0
   -7.4045   29.0126  -32.1802 H   0  0  0  0  0  0  0  0  0  0  0  0
   -6.3523   32.2035  -29.3584 H   0  0  0  0  0  0  0  0  0  0  0  0
   -4.9174   31.1488  -29.3474 H   0  0  0  0  0  0  0  0  0  0  0  0
  1  2  2  0
  1  6  1  0
  2  3  1  0
  3  4  2  0
  3 24  1  0
  4  5  1  0
  4  8  1  0
  5  6  2  0
  5  7  1  0
  8  9  2  0
  8 10  1  0
 10 11  1  0
 11 12  2  0
 11 16  1  0
 12 13  1  0
 13 14  2  0
 14 15  1  0
 15 16  2  0
 15 17  1  0
 17 18  1  0
 18 19  2  0
 18 20  1  0
 20 21  1  0
 20 22  1  0
 21 22  1  0
 22 23  1  0
  1 27  1  0
  2 28  1  0
  6 29  1  0
 10 30  1  0
 12 31  1  0
 13 32  1  0
 16 33  1  0
 17 34  1  0
 20 25  1  0
 21 35  1  0
 21 36  1  0
 22 26  1  0
M  END
>  <i_m_stars>
2

>  <r_user_dG.exp>
-11.28

>  <Total Formal Charge>
0.0

>  <Favorite_cresset>
false

>  <MW_cresset>
384.6

>  <#Atoms_cresset>
24

>  <SlogP_cresset>
4.3

>  <TPSA_cresset>
71.1

>  <Flexibility_cresset>
1.8

>  <Rof5_cresset>
0

>  <Confs_cresset>
0

>  <Poses_cresset>
0

$$$$
ejm_48
  xed2sdf           3D
 
 42 44  0  0  0  0  0  0  0  0999 V2000
   -1.9612   21.5502  -27.3300 C   0  0  0  0  0  0  0  0  0  0  0  0
   -1.2942   22.4120  -28.1957 C   0  0  0  0  0  0  0  0  0  0  0  0
   -1.9550   22.9520  -29.2938 C   0  0  0  0  0  0  0  0  0  0  0  0
   -3.2998   22.6223  -29.5426 C   0  0  0  0  0  0  0  0  0  0  0  0
   -3.9689   21.7588  -28.6534 C   0  0  0  0  0  0  0  0  0  0  0  0
   -3.2917   21.2292  -27.5624 C   0  0  0  0  0  0  0  0  0  0  0  0
   -5.6403   21.3533  -28.9190 Cl  0  0  0  0  0  0  0  0  0  0  0  0
   -4.0401   23.1522  -30.7110 C   0  0  0  0  0  0  0  0  0  0  0  0
   -4.2265   22.4198  -31.6685 O   0  0  0  0  0  0  0  0  0  0  0  0
   -4.5133   24.4119  -30.6476 N   0  0  0  0  0  0  0  0  0  0  0  0
   -5.2869   25.1112  -31.5800 C   0  0  0  0  0  0  0  0  0  0  0  0
   -5.9620   24.5479  -32.6807 C   0  0  0  0  0  0  0  0  0  0  0  0
   -6.7806   25.3609  -33.4589 C   0  0  0  0  0  0  0  0  0  0  0  0
   -6.9234   26.6542  -33.1828 N   0  0  0  0  0  0  0  0  0  0  0  0
   -6.2984   27.2317  -32.1577 C   0  0  0  0  0  0  0  0  0  0  0  0
   -5.5070   26.4571  -31.3066 C   0  0  0  0  0  0  0  0  0  0  0  0
   -6.5391   28.5828  -31.8838 N   0  0  0  0  0  0  0  0  0  0  0  0
   -5.7134   29.4445  -31.2331 C   0  0  0  0  0  0  0  0  0  0  0  0
   -4.6156   29.1218  -30.8098 O   0  0  0  0  0  0  0  0  0  0  0  0
   -1.1124   24.0506  -30.3318 Cl  0  0  0  0  0  0  0  0  0  0  0  0
   -6.1757   30.8841  -31.0159 C   0  0  0  0  0  0  0  0  0  0  0  0
   -5.7758   31.3307  -29.6033 C   0  0  0  0  0  0  0  0  0  0  0  0
   -4.4024   31.9768  -29.7974 C   0  0  0  0  0  0  0  0  0  0  0  0
   -4.5846   32.7530  -31.1037 C   0  0  0  0  0  0  0  0  0  0  0  0
   -5.4197   31.8126  -31.9835 C   0  0  0  0  0  0  0  0  0  0  0  0
   -1.4436   21.1321  -26.4786 H   0  0  0  0  0  0  0  0  0  0  0  0
   -0.2591   22.6635  -28.0157 H   0  0  0  0  0  0  0  0  0  0  0  0
   -3.8111   20.5610  -26.8909 H   0  0  0  0  0  0  0  0  0  0  0  0
   -4.3168   24.9848  -29.8393 H   0  0  0  0  0  0  0  0  0  0  0  0
   -5.8400   23.4993  -32.9094 H   0  0  0  0  0  0  0  0  0  0  0  0
   -7.3119   24.9439  -34.3018 H   0  0  0  0  0  0  0  0  0  0  0  0
   -5.0645   26.9093  -30.4313 H   0  0  0  0  0  0  0  0  0  0  0  0
   -7.4045   29.0126  -32.1802 H   0  0  0  0  0  0  0  0  0  0  0  0
   -7.2836   30.9672  -31.1542 H   0  0  0  0  0  0  0  0  0  0  0  0
   -5.7582   30.4902  -28.8683 H   0  0  0  0  0  0  0  0  0  0  0  0
   -6.4960   32.1001  -29.2320 H   0  0  0  0  0  0  0  0  0  0  0  0
   -4.1038   32.6292  -28.9417 H   0  0  0  0  0  0  0  0  0  0  0  0
   -3.6249   31.1857  -29.9296 H   0  0  0  0  0  0  0  0  0  0  0  0
   -5.1602   33.6882  -30.8978 H   0  0  0  0  0  0  0  0  0  0  0  0
   -3.6133   33.0421  -31.5729 H   0  0  0  0  0  0  0  0  0  0  0  0
   -4.7457   31.2109  -32.6405 H   0  0  0  0  0  0  0  0  0  0  0  0
   -6.1117   32.3846  -32.6475 H   0  0  0  0  0  0  0  0  0  0  0  0
  1  2  2  0
  1  6  1  0
  2  3  1  0
  3  4  2  0
  3 20  1  0
  4  5  1  0
  4  8  1  0
  5  6  2  0
  5  7  1  0
  8  9  2  0
  8 10  1  0
 10 11  1  0
 11 12  2  0
 11 16  1  0
 12 13  1  0
 13 14  2  0
 14 15  1  0
 15 16  2  0
 15 17  1  0
 17 18  1  0
 18 19  2  0
 18 21  1  0
 21 22  1  0
 21 25  1  0
 22 23  1  0
 23 24  1  0
 24 25  1  0
  1 26  1  0
  2 27  1  0
  6 28  1  0
 10 29  1  0
 12 30  1  0
 13 31  1  0
 16 32  1  0
 17 33  1  0
 22 35  1  0
 22 36  1  0
 23 37  1  0
 23 38  1  0
 24 39  1  0
 24 40  1  0
 25 41  1  0
 25 42  1  0
 34 21  1  0
M  END
>  <r_user_dG.exp>
-9

>  <Total Formal Charge>
0.0

>  <Favorite_cresset>
false

>  <MW_cresset>
378.3

>  <#Atoms_cresset>
25

>  <SlogP_cresset>
4.8

>  <TPSA_cresset>
71.1

>  <Flexibility_cresset>
2.2

>  <Rof5_cresset>
0

>  <Confs_cresset>
0

>  <Poses_cresset>
0

$$$$
ejm_47
  xed2sdf           3D
 
 39 41  0  0  0  0  0  0  0  0999 V2000
   -1.9612   21.5502  -27.3300 C   0  0  0  0  0  0  0  0  0  0  0  0
   -1.2942   22.4120  -28.1957 C   0  0  0  0  0  0  0  0  0  0  0  0
   -1.9550   22.9520  -29.2938 C   0  0  0  0  0  0  0  0  0  0  0  0
   -3.2998   22.6223  -29.5426 C   0  0  0  0  0  0  0  0  0  0  0  0
   -3.9689   21.7588  -28.6534 C   0  0  0  0  0  0  0  0  0  0  0  0
   -3.2917   21.2292  -27.5624 C   0  0  0  0  0  0  0  0  0  0  0  0
   -5.6403   21.3533  -28.9190 Cl  0  0  0  0  0  0  0  0  0  0  0  0
   -4.0401   23.1522  -30.7110 C   0  0  0  0  0  0  0  0  0  0  0  0
   -4.2265   22.4198  -31.6685 O   0  0  0  0  0  0  0  0  0  0  0  0
   -4.5133   24.4119  -30.6476 N   0  0  0  0  0  0  0  0  0  0  0  0
   -5.2869   25.1112  -31.5800 C   0  0  0  0  0  0  0  0  0  0  0  0
   -5.9620   24.5479  -32.6807 C   0  0  0  0  0  0  0  0  0  0  0  0
   -6.7806   25.3609  -33.4589 C   0  0  0  0  0  0  0  0  0  0  0  0
   -6.9234   26.6542  -33.1828 N   0  0  0  0  0  0  0  0  0  0  0  0
   -6.2984   27.2317  -32.1577 C   0  0  0  0  0  0  0  0  0  0  0  0
   -5.5070   26.4571  -31.3066 C   0  0  0  0  0  0  0  0  0  0  0  0
   -6.5391   28.5828  -31.8838 N   0  0  0  0  0  0  0  0  0  0  0  0
   -5.7134   29.4445  -31.2331 C   0  0  0  0  0  0  0  0  0  0  0  0
   -4.6156   29.1218  -30.8098 O   0  0  0  0  0  0  0  0  0  0  0  0
   -1.1124   24.0506  -30.3318 Cl  0  0  0  0  0  0  0  0  0  0  0  0
   -6.2070   30.8552  -31.0259 C   0  0  0  0  0  0  0  0  0  0  0  0
   -5.6712   31.4766  -29.7311 C   0  0  0  0  0  0  0  0  0  0  0  0
   -4.5282   32.0864  -30.5505 C   0  0  0  0  0  0  0  0  0  0  0  0
   -5.3815   31.8833  -31.8076 C   0  0  0  0  0  0  0  0  0  0  0  0
   -1.4436   21.1321  -26.4786 H   0  0  0  0  0  0  0  0  0  0  0  0
   -0.2591   22.6635  -28.0157 H   0  0  0  0  0  0  0  0  0  0  0  0
   -3.8111   20.5610  -26.8909 H   0  0  0  0  0  0  0  0  0  0  0  0
   -4.3168   24.9848  -29.8393 H   0  0  0  0  0  0  0  0  0  0  0  0
   -5.8400   23.4993  -32.9094 H   0  0  0  0  0  0  0  0  0  0  0  0
   -7.3119   24.9439  -34.3018 H   0  0  0  0  0  0  0  0  0  0  0  0
   -5.0645   26.9093  -30.4312 H   0  0  0  0  0  0  0  0  0  0  0  0
   -7.4045   29.0126  -32.1802 H   0  0  0  0  0  0  0  0  0  0  0  0
   -6.3587   32.2529  -29.3152 H   0  0  0  0  0  0  0  0  0  0  0  0
   -5.3503   30.7399  -28.9565 H   0  0  0  0  0  0  0  0  0  0  0  0
   -4.2966   33.1512  -30.3093 H   0  0  0  0  0  0  0  0  0  0  0  0
   -3.6135   31.4450  -30.5483 H   0  0  0  0  0  0  0  0  0  0  0  0
   -5.9737   32.7930  -32.0718 H   0  0  0  0  0  0  0  0  0  0  0  0
   -4.8299   31.4702  -32.6855 H   0  0  0  0  0  0  0  0  0  0  0  0
   -7.2836   30.9672  -31.1542 H   0  0  0  0  0  0  0  0  0  0  0  0
  1  2  2  0
  1  6  1  0
  2  3  1  0
  3  4  2  0
  3 20  1  0
  4  5  1  0
  4  8  1  0
  5  6  2  0
  5  7  1  0
  8  9  2  0
  8 10  1  0
 10 11  1  0
 11 12  2  0
 11 16  1  0
 12 13  1  0
 13 14  2  0
 14 15  1  0
 15 16  2  0
 15 17  1  0
 17 18  1  0
 18 19  2  0
 18 21  1  0
 21 22  1  0
 21 24  1  0
 22 23  1  0
 23 24  1  0
  1 25  1  0
  2 26  1  0
  6 27  1  0
 10 28  1  0
 12 29  1  0
 13 30  1  0
 16 31  1  0
 17 32  1  0
 21 39  1  0
 22 33  1  0
 22 34  1  0
 23 35  1  0
 23 36  1  0
 24 37  1  0
 24 38  1  0
M  END
>  <r_user_dG.exp>
-9.7

>  <Total Formal Charge>
0.0

>  <Favorite_cresset>
false

>  <MW_cresset>
364.2

>  <#Atoms_cresset>
24

>  <SlogP_cresset>
4.4

>  <TPSA_cresset>
71.1

>  <Flexibility_cresset>
1.8

>  <Rof5_cresset>
0

>  <Confs_cresset>
0

>  <Poses_cresset>
0

$$$$
jmc_23
  xed2sdf           3D
 
 36 38  0  0  1  0  0  0  0  0999 V2000
   -1.9612   21.5502  -27.3300 C   0  0  0  0  0  0  0  0  0  0  0  0
   -1.2942   22.4120  -28.1957 C   0  0  0  0  0  0  0  0  0  0  0  0
   -1.9550   22.9520  -29.2938 C   0  0  0  0  0  0  0  0  0  0  0  0
   -3.2998   22.6223  -29.5426 C   0  0  0  0  0  0  0  0  0  0  0  0
   -3.9689   21.7588  -28.6534 C   0  0  0  0  0  0  0  0  0  0  0  0
   -3.2917   21.2292  -27.5624 C   0  0  0  0  0  0  0  0  0  0  0  0
   -5.6403   21.3533  -28.9190 Cl  0  0  0  0  0  0  0  0  0  0  0  0
   -4.0401   23.1522  -30.7110 C   0  0  0  0  0  0  0  0  0  0  0  0
   -4.2265   22.4198  -31.6685 O   0  0  0  0  0  0  0  0  0  0  0  0
   -4.5133   24.4119  -30.6476 N   0  0  0  0  0  0  0  0  0  0  0  0
   -5.2869   25.1112  -31.5800 C   0  0  0  0  0  0  0  0  0  0  0  0
   -5.9620   24.5479  -32.6807 C   0  0  0  0  0  0  0  0  0  0  0  0
   -6.7806   25.3609  -33.4589 C   0  0  0  0  0  0  0  0  0  0  0  0
   -6.9234   26.6542  -33.1828 N   0  0  0  0  0  0  0  0  0  0  0  0
   -6.2984   27.2317  -32.1577 C   0  0  0  0  0  0  0  0  0  0  0  0
   -5.5070   26.4571  -31.3066 C   0  0  0  0  0  0  0  0  0  0  0  0
   -6.5391   28.5828  -31.8838 N   0  0  0  0  0  0  0  0  0  0  0  0
   -5.7134   29.4445  -31.2331 C   0  0  0  0  0  0  0  0  0  0  0  0
   -4.6156   29.1218  -30.8098 O   0  0  0  0  0  0  0  0  0  0  0  0
   -6.2319   30.8471  -31.0310 C   0  0  0  0  0  0  0  0  0  0  0  0
   -5.5787   31.7462  -29.9763 C   0  0  0  0  0  0  0  0  0  0  0  0
   -5.3636   32.0236  -31.4653 C   0  0  0  0  0  0  0  0  0  0  0  0
   -4.1127   31.7229  -32.0057 F   0  0  0  0  0  0  0  0  0  0  0  0
   -1.1124   24.0506  -30.3318 Cl  0  0  0  0  0  0  0  0  0  0  0  0
   -7.3054   30.9413  -31.1624 H   0  0  0  0  0  0  0  0  0  0  0  0
   -5.8627   32.8962  -31.8829 H   0  0  0  0  0  0  0  0  0  0  0  0
   -1.4436   21.1321  -26.4786 H   0  0  0  0  0  0  0  0  0  0  0  0
   -0.2591   22.6635  -28.0157 H   0  0  0  0  0  0  0  0  0  0  0  0
   -3.8111   20.5610  -26.8909 H   0  0  0  0  0  0  0  0  0  0  0  0
   -4.3168   24.9848  -29.8393 H   0  0  0  0  0  0  0  0  0  0  0  0
   -5.8400   23.4993  -32.9094 H   0  0  0  0  0  0  0  0  0  0  0  0
   -7.3119   24.9439  -34.3018 H   0  0  0  0  0  0  0  0  0  0  0  0
   -5.0645   26.9093  -30.4313 H   0  0  0  0  0  0  0  0  0  0  0  0
   -7.4045   29.0126  -32.1802 H   0  0  0  0  0  0  0  0  0  0  0  0
   -6.3523   32.2035  -29.3584 H   0  0  0  0  0  0  0  0  0  0  0  0
   -4.9174   31.1488  -29.3474 H   0  0  0  0  0  0  0  0  0  0  0  0
  1  2  2  0
  1  6  1  0
  2  3  1  0
  3  4  2  0
  3 24  1  0
  4  5  1  0
  4  8  1  0
  5  6  2  0
  5  7  1  0
  8  9  2  0
  8 10  1  0
 10 11  1  0
 11 12  2  0
 11 16  1  0
 12 13  1  0
 13 14  2  0
 14 15  1  0
 15 16  2  0
 15 17  1  0
 17 18  1  0
 18 19  2  0
 18 20  1  0
 20 21  1  0
 20 22  1  0
 21 22  1  0
 22 23  1  0
  1 27  1  0
  2 28  1  0
  6 29  1  0
 10 30  1  0
 12 31  1  0
 13 32  1  0
 16 33  1  0
 17 34  1  0
 20 25  1  0
 21 35  1  0
 21 36  1  0
 22 26  1  0
M  END
>  <r_user_dG.exp>
-11.7

>  <Total Formal Charge>
0.0

>  <Favorite_cresset>
false

>  <MW_cresset>
368.2

>  <#Atoms_cresset>
24

>  <SlogP_cresset>
4

>  <TPSA_cresset>
71.1

>  <Flexibility_cresset>
1.8

>  <Rof5_cresset>
0

>  <Confs_cresset>
0

>  <Poses_cresset>
0

$$$$
ejm_42
  xed2sdf           3D
 
 35 36  0  0  0  0  0  0  0  0999 V2000
   -1.9612   21.5502  -27.3300 C   0  0  0  0  0  0  0  0  0  0  0  0
   -1.2942   22.4120  -28.1957 C   0  0  0  0  0  0  0  0  0  0  0  0
   -1.9550   22.9520  -29.2938 C   0  0  0  0  0  0  0  0  0  0  0  0
   -3.2998   22.6223  -29.5426 C   0  0  0  0  0  0  0  0  0  0  0  0
   -3.9689   21.7588  -28.6534 C   0  0  0  0  0  0  0  0  0  0  0  0
   -3.2917   21.2292  -27.5624 C   0  0  0  0  0  0  0  0  0  0  0  0
   -5.6403   21.3533  -28.9190 Cl  0  0  0  0  0  0  0  0  0  0  0  0
   -4.0401   23.1522  -30.7110 C   0  0  0  0  0  0  0  0  0  0  0  0
   -4.2265   22.4198  -31.6685 O   0  0  0  0  0  0  0  0  0  0  0  0
   -4.5133   24.4119  -30.6476 N   0  0  0  0  0  0  0  0  0  0  0  0
   -5.2869   25.1112  -31.5800 C   0  0  0  0  0  0  0  0  0  0  0  0
   -5.9620   24.5479  -32.6807 C   0  0  0  0  0  0  0  0  0  0  0  0
   -6.7806   25.3609  -33.4589 C   0  0  0  0  0  0  0  0  0  0  0  0
   -6.9234   26.6542  -33.1828 N   0  0  0  0  0  0  0  0  0  0  0  0
   -6.2984   27.2317  -32.1577 C   0  0  0  0  0  0  0  0  0  0  0  0
   -5.5070   26.4571  -31.3066 C   0  0  0  0  0  0  0  0  0  0  0  0
   -6.5391   28.5828  -31.8838 N   0  0  0  0  0  0  0  0  0  0  0  0
   -5.7134   29.4445  -31.2331 C   0  0  0  0  0  0  0  0  0  0  0  0
   -4.6156   29.1218  -30.8098 O   0  0  0  0  0  0  0  0  0  0  0  0
   -6.2319   30.8471  -31.0310 C   0  0  0  0  0  0  0  0  0  0  0  0
   -1.1124   24.0506  -30.3318 Cl  0  0  0  0  0  0  0  0  0  0  0  0
   -5.0894   31.7546  -30.6833 C   0  0  0  0  0  0  0  0  0  0  0  0
   -6.7611   31.2474  -31.8901 H   0  0  0  0  0  0  0  0  0  0  0  0
   -1.4436   21.1321  -26.4786 H   0  0  0  0  0  0  0  0  0  0  0  0
   -0.2591   22.6635  -28.0157 H   0  0  0  0  0  0  0  0  0  0  0  0
   -3.8111   20.5610  -26.8909 H   0  0  0  0  0  0  0  0  0  0  0  0
   -4.3168   24.9848  -29.8393 H   0  0  0  0  0  0  0  0  0  0  0  0
   -5.8400   23.4993  -32.9094 H   0  0  0  0  0  0  0  0  0  0  0  0
   -7.3119   24.9439  -34.3018 H   0  0  0  0  0  0  0  0  0  0  0  0
   -5.0645   26.9093  -30.4313 H   0  0  0  0  0  0  0  0  0  0  0  0
   -7.4045   29.0126  -32.1801 H   0  0  0  0  0  0  0  0  0  0  0  0
   -6.8876   30.8681  -30.1605 H   0  0  0  0  0  0  0  0  0  0  0  0
   -5.4617   32.7685  -30.5367 H   0  0  0  0  0  0  0  0  0  0  0  0
   -4.6143   31.4065  -29.7661 H   0  0  0  0  0  0  0  0  0  0  0  0
   -4.3607   31.7493  -31.4939 H   0  0  0  0  0  0  0  0  0  0  0  0
  1  2  2  0
  1  6  1  0
  2  3  1  0
  3  4  2  0
  3 21  1  0
  4  5  1  0
  4  8  1  0
  5  6  2  0
  5  7  1  0
  8  9  2  0
  8 10  1  0
 10 11  1  0
 11 12  2  0
 11 16  1  0
 12 13  1  0
 13 14  2  0
 14 15  1  0
 15 16  2  0
 15 17  1  0
 17 18  1  0
 18 19  2  0
 18 20  1  0
 20 22  1  0
  1 24  1  0
  2 25  1  0
  6 26  1  0
 10 27  1  0
 12 28  1  0
 13 29  1  0
 16 30  1  0
 17 31  1  0
 20 23  1  0
 20 32  1  0
 22 33  1  0
 22 34  1  0
 22 35  1  0
M  END
>  <r_user_dG.exp>
-9.78

>  <Total Formal Charge>
0.0

>  <Favorite_cresset>
false

>  <MW_cresset>
338.2

>  <#Atoms_cresset>
22

>  <SlogP_cresset>
4

>  <TPSA_cresset>
71.1

>  <Flexibility_cresset>
1.8

>  <Rof5_cresset>
0

>  <Confs_cresset>
0

>  <Poses_cresset>
0

$$$$
ejm_54
  xed2sdf           3D
 
 37 38  0  0  0  0  0  0  0  0999 V2000
   -1.9612   21.5502  -27.3300 C   0  0  0  0  0  0  0  0  0  0  0  0
   -1.2942   22.4120  -28.1957 C   0  0  0  0  0  0  0  0  0  0  0  0
   -1.9550   22.9520  -29.2938 C   0  0  0  0  0  0  0  0  0  0  0  0
   -3.2998   22.6223  -29.5426 C   0  0  0  0  0  0  0  0  0  0  0  0
   -3.9689   21.7588  -28.6534 C   0  0  0  0  0  0  0  0  0  0  0  0
   -3.2917   21.2292  -27.5624 C   0  0  0  0  0  0  0  0  0  0  0  0
   -5.6403   21.3533  -28.9190 Cl  0  0  0  0  0  0  0  0  0  0  0  0
   -4.0401   23.1522  -30.7110 C   0  0  0  0  0  0  0  0  0  0  0  0
   -4.2265   22.4198  -31.6685 O   0  0  0  0  0  0  0  0  0  0  0  0
   -4.5133   24.4119  -30.6476 N   0  0  0  0  0  0  0  0  0  0  0  0
   -5.2869   25.1112  -31.5800 C   0  0  0  0  0  0  0  0  0  0  0  0
   -5.9620   24.5479  -32.6807 C   0  0  0  0  0  0  0  0  0  0  0  0
   -6.7806   25.3609  -33.4589 C   0  0  0  0  0  0  0  0  0  0  0  0
   -6.9234   26.6542  -33.1828 N   0  0  0  0  0  0  0  0  0  0  0  0
   -6.2984   27.2317  -32.1577 C   0  0  0  0  0  0  0  0  0  0  0  0
   -5.5070   26.4571  -31.3066 C   0  0  0  0  0  0  0  0  0  0  0  0
   -6.5391   28.5828  -31.8838 N   0  0  0  0  0  0  0  0  0  0  0  0
   -5.7134   29.4445  -31.2331 C   0  0  0  0  0  0  0  0  0  0  0  0
   -4.6156   29.1218  -30.8098 O   0  0  0  0  0  0  0  0  0  0  0  0
   -1.1124   24.0506  -30.3318 Cl  0  0  0  0  0  0  0  0  0  0  0  0
   -5.1871   31.8542  -30.6778 C   0  0  0  0  0  0  0  0  0  0  0  0
   -3.9781   31.6716  -31.5468 C   0  0  0  0  0  0  0  0  0  0  0  0
   -6.1554   30.8245  -31.0242 N   0  0  0  0  0  0  0  0  0  0  0  0
   -1.4436   21.1321  -26.4786 H   0  0  0  0  0  0  0  0  0  0  0  0
   -0.2591   22.6635  -28.0157 H   0  0  0  0  0  0  0  0  0  0  0  0
   -3.8111   20.5610  -26.8909 H   0  0  0  0  0  0  0  0  0  0  0  0
   -4.3168   24.9848  -29.8393 H   0  0  0  0  0  0  0  0  0  0  0  0
   -5.8400   23.4993  -32.9094 H   0  0  0  0  0  0  0  0  0  0  0  0
   -7.3119   24.9439  -34.3018 H   0  0  0  0  0  0  0  0  0  0  0  0
   -5.0645   26.9093  -30.4313 H   0  0  0  0  0  0  0  0  0  0  0  0
   -7.4045   29.0126  -32.1801 H   0  0  0  0  0  0  0  0  0  0  0  0
   -5.5878   32.8578  -30.8199 H   0  0  0  0  0  0  0  0  0  0  0  0
   -4.9066   31.7200  -29.6331 H   0  0  0  0  0  0  0  0  0  0  0  0
   -7.1324   31.0619  -31.1206 H   0  0  0  0  0  0  0  0  0  0  0  0
   -3.5766   30.6681  -31.4054 H   0  0  0  0  0  0  0  0  0  0  0  0
   -4.2573   31.8068  -32.5917 H   0  0  0  0  0  0  0  0  0  0  0  0
   -3.2207   32.4070  -31.2756 H   0  0  0  0  0  0  0  0  0  0  0  0
  1  2  2  0
  1  6  1  0
  2  3  1  0
  3  4  2  0
  3 20  1  0
  4  5  1  0
  4  8  1  0
  5  6  2  0
  5  7  1  0
  8  9  2  0
  8 10  1  0
 10 11  1  0
 11 12  2  0
 11 16  1  0
 12 13  1  0
 13 14  2  0
 14 15  1  0
 15 16  2  0
 15 17  1  0
 17 18  1  0
 18 19  2  0
 18 23  1  0
 21 22  1  0
 21 23  1  0
  1 24  1  0
  2 25  1  0
  6 26  1  0
 10 27  1  0
 12 28  1  0
 13 29  1  0
 16 30  1  0
 17 31  1  0
 21 32  1  0
 21 33  1  0
 22 35  1  0
 22 36  1  0
 22 37  1  0
 23 34  1  0
M  END
>  <r_user_dG.exp>
-10.53

>  <Total Formal Charge>
0.0

>  <Favorite_cresset>
false

>  <MW_cresset>
353.2

>  <#Atoms_cresset>
23

>  <SlogP_cresset>
3.8

>  <TPSA_cresset>
83.1

>  <Flexibility_cresset>
2.3

>  <Rof5_cresset>
0

>  <Confs_cresset>
0

>  <Poses_cresset>
0

$$$$
