@<TRIPOS>MOLECULE
26
    43     46      1
SMALL
USER_CHARGES
@<TRIPOS>ATOM
      1  O           3.8290  -49.9082    7.3567 O.co2     1 MOL1        0.0000
      2  C           3.1153  -49.0416    6.8012 C.2       1 MOL1        0.0000
      3  O           3.5513  -47.8977    6.5562 O.2       1 MOL1        0.0000
      4  C           1.7057  -49.3580    6.4403 C.ar      1 MOL1        0.0000
      5  C          -0.1076  -50.6487    6.3793 C.ar      1 MOL1        0.0000
      6  C          -1.0211  -51.7084    6.5402 C.ar      1 MOL1        0.0000
      7  C          -2.3348  -51.5531    6.0492 C.ar      1 MOL1        0.0000
      8  C          -2.6993  -50.3586    5.3936 C.ar      1 MOL1        0.0000
      9  C          -1.7635  -49.3099    5.2420 C.ar      1 MOL1        0.0000
     10  C          -0.4423  -49.4338    5.7433 C.ar      1 MOL1        0.0000
     11  C           0.7328  -48.6071    5.8015 C.ar      1 MOL1        0.0000
     12  C           0.8592  -47.2049    5.2675 C.3       1 MOL1        0.0000
     13  C           0.9701  -46.1519    6.3924 C.3       1 MOL1        0.0000
     14  C          -0.0852  -45.0395    6.3276 C.3       1 MOL1        0.0000
     15  O          -1.4118  -45.4805    6.0441 O.3       1 MOL1        0.0000
     16  C          -2.2386  -45.8040    7.0949 C.ar      1 MOL1        0.0000
     17  C          -4.0387  -46.5572    9.1587 C.ar      1 MOL1        0.0000
     18  C          -2.7241  -47.0517    9.1502 C.ar      1 MOL1        0.0000
     19  C          -1.8288  -46.6752    8.1339 C.ar      1 MOL1        0.0000
     20  C          -4.4644  -45.6869    8.1312 C.ar      1 MOL1        0.0000
     21  C          -3.5686  -45.3157    7.0918 C.ar      1 MOL1        0.0000
     22  C          -4.0196  -44.4491    6.0697 C.ar      1 MOL1        0.0000
     23  C          -5.3473  -43.9766    6.0646 C.ar      1 MOL1        0.0000
     24  C          -6.2357  -44.3575    7.0895 C.ar      1 MOL1        0.0000
     25  C          -5.7910  -45.2055    8.1244 C.ar      1 MOL1        0.0000
     26  O           1.2056  -50.5983    6.7955 O.3       1 MOL1        0.0000
     27  H          -0.7241  -52.6191    7.0419 H         1 MOL1        0.0000
     28  H          -3.0568  -52.3474    6.1618 H         1 MOL1        0.0000
     29  H          -3.7027  -50.2338    5.0158 H         1 MOL1        0.0000
     30  H          -2.0623  -48.3873    4.7602 H         1 MOL1        0.0000
     31  H           0.0186  -46.9829    4.6116 H         1 MOL1        0.0000
     32  H           1.7413  -47.1366    4.6230 H         1 MOL1        0.0000
     33  H           1.9528  -45.6851    6.3456 H         1 MOL1        0.0000
     34  H           0.9550  -46.6329    7.3658 H         1 MOL1        0.0000
     35  H           0.1913  -44.3764    5.5164 H         1 MOL1        0.0000
     36  H          -0.0677  -44.4348    7.2308 H         1 MOL1        0.0000
     37  H          -0.8492  -47.1142    8.1369 H         1 MOL1        0.0000
     38  H          -3.3603  -44.1405    5.2743 H         1 MOL1        0.0000
     39  H          -5.6744  -43.3185    5.2717 H         1 MOL1        0.0000
     40  H          -7.2548  -43.9991    7.0843 H         1 MOL1        0.0000
     41  H          -6.4744  -45.4962    8.9093 H         1 MOL1        0.0000
     42  H          -2.4004  -47.7370    9.9189 H         1 MOL1        0.0000
     43  H          -4.7163  -46.8570    9.9410 H         1 MOL1        0.0000
@<TRIPOS>BOND
     1      1      2 1 
     2      2      3 2 
     3      2      4 1 
     4      4     11 ar
     5      4     26 ar
     6      5      6 ar
     7      5     10 ar
     8      5     26 ar
     9      6      7 ar
    10      7      8 ar
    11      8      9 ar
    12      9     10 ar
    13     10     11 ar
    14     11     12 1 
    15     12     13 1 
    16     13     14 1 
    17     14     15 1 
    18     15     16 1 
    19     16     19 ar
    20     16     21 ar
    21     17     18 ar
    22     17     20 ar
    23     18     19 ar
    24     20     21 ar
    25     20     25 ar
    26     21     22 ar
    27     22     23 ar
    28     23     24 ar
    29     24     25 ar
    30      6     27 1 
    31      7     28 1 
    32      8     29 1 
    33      9     30 1 
    34     12     31 1 
    35     12     32 1 
    36     13     33 1 
    37     13     34 1 
    38     14     35 1 
    39     14     36 1 
    40     17     43 1 
    41     18     42 1 
    42     19     37 1 
    43     22     38 1 
    44     23     39 1 
    45     24     40 1 
    46     25     41 1 
@<TRIPOS>SUBSTRUCTURE
     1 MOL1         1 MOLECULE 1 A  MOL 
# Molecule written by the XED library from Cresset
