@<TRIPOS>MOLECULE
27
    38     40      1
SMALL
USER_CHARGES
@<TRIPOS>ATOM
      1  O           3.5620  -47.7655    6.2857 O.co2     1 MOL1        0.0000
      2  C           3.0106  -48.7677    6.7913 C.2       1 MOL1        0.0000
      3  O           3.6267  -49.5212    7.5837 O.2       1 MOL1        0.0000
      4  C           1.5987  -49.0922    6.4610 C.ar      1 MOL1        0.0000
      5  C          -0.2460  -50.4444    6.5734 C.ar      1 MOL1        0.0000
      6  C          -1.2006  -51.4538    6.8287 C.ar      1 MOL1        0.0000
      7  C          -2.4848  -51.3550    6.2582 C.ar      1 MOL1        0.0000
      8  C          -2.8075  -50.2415    5.4534 C.ar      1 MOL1        0.0000
      9  C          -1.8538  -49.2332    5.2139 C.ar      1 MOL1        0.0000
     10  C          -0.5510  -49.3043    5.7662 C.ar      1 MOL1        0.0000
     11  C           0.6244  -48.4626    5.7171 C.ar      1 MOL1        0.0000
     12  C           0.7436  -47.1491    4.9892 C.3       1 MOL1        0.0000
     13  C           0.8629  -45.9369    5.9353 C.3       1 MOL1        0.0000
     14  C          -0.3435  -45.7461    6.8598 C.3       1 MOL1        0.0000
     15  O          -1.4738  -45.3700    6.0783 O.3       1 MOL1        0.0000
     16  C          -2.6659  -45.1791    6.7323 C.ar      1 MOL1        0.0000
     17  C          -2.8936  -45.5089    8.0957 C.ar      1 MOL1        0.0000
     18  C          -4.1486  -45.2841    8.6877 C.ar      1 MOL1        0.0000
     19  C          -5.1945  -44.7219    7.9306 C.ar      1 MOL1        0.0000
     20  C          -4.9832  -44.3904    6.5801 C.ar      1 MOL1        0.0000
     21  C          -3.7285  -44.6254    5.9884 C.ar      1 MOL1        0.0000
     22  N           1.0676  -50.2717    6.9802 N.pl3     1 MOL1        0.0000
     23  H          -0.9288  -52.3015    7.4431 H         1 MOL1        0.0000
     24  H          -3.2130  -52.1247    6.4483 H         1 MOL1        0.0000
     25  H          -3.7943  -50.1701    5.0203 H         1 MOL1        0.0000
     26  H          -2.1170  -48.3840    4.5924 H         1 MOL1        0.0000
     27  H          -0.1082  -47.0091    4.3235 H         1 MOL1        0.0000
     28  H           1.6134  -47.1680    4.3352 H         1 MOL1        0.0000
     29  H           1.0219  -45.0317    5.3513 H         1 MOL1        0.0000
     30  H           1.7514  -46.0358    6.5559 H         1 MOL1        0.0000
     31  H          -0.1280  -44.9553    7.5803 H         1 MOL1        0.0000
     32  H          -0.5288  -46.6684    7.4145 H         1 MOL1        0.0000
     33  H          -2.1221  -45.9412    8.7152 H         1 MOL1        0.0000
     34  H          -3.5750  -44.3709    4.9495 H         1 MOL1        0.0000
     35  H           1.6380  -50.8970    7.5486 H         1 MOL1        0.0000
     36  H          -5.7824  -43.9589    5.9956 H         1 MOL1        0.0000
     37  H          -6.1592  -44.5447    8.3870 H         1 MOL1        0.0000
     38  H          -4.3155  -45.5485    9.7199 H         1 MOL1        0.0000
@<TRIPOS>BOND
     1      1      2 1 
     2      2      3 2 
     3      2      4 1 
     4      4     11 ar
     5      4     22 ar
     6      5      6 ar
     7      5     10 ar
     8      5     22 ar
     9      6      7 ar
    10      7      8 ar
    11      8      9 ar
    12      9     10 ar
    13     10     11 ar
    14     11     12 1 
    15     12     13 1 
    16     13     14 1 
    17     14     15 1 
    18     15     16 1 
    19     16     17 ar
    20     16     21 ar
    21     17     18 ar
    22     18     19 ar
    23     19     20 ar
    24     20     21 ar
    25      6     23 1 
    26      7     24 1 
    27      8     25 1 
    28      9     26 1 
    29     12     27 1 
    30     12     28 1 
    31     13     29 1 
    32     13     30 1 
    33     14     31 1 
    34     14     32 1 
    35     17     33 1 
    36     18     38 1 
    37     19     37 1 
    38     20     36 1 
    39     21     34 1 
    40     22     35 1 
@<TRIPOS>SUBSTRUCTURE
     1 MOL1         1 MOLECULE 1 A  MOL 
# Molecule written by the XED library from Cresset
