@<TRIPOS>MOLECULE
28
    41     43      1
SMALL
USER_CHARGES
@<TRIPOS>ATOM
      1  O           3.9028  -50.1313    6.9252 O.co2     1 MOL1        0.0000
      2  C           3.1380  -49.1612    6.7262 C.2       1 MOL1        0.0000
      3  O           3.5633  -47.9815    6.7264 O.2       1 MOL1        0.0000
      4  C           1.6985  -49.4262    6.5058 C.ar      1 MOL1        0.0000
      5  C          -0.0745  -50.8648    6.3721 C.ar      1 MOL1        0.0000
      6  C          -0.9478  -51.9675    6.3522 C.ar      1 MOL1        0.0000
      7  C          -2.3225  -51.7622    6.1429 C.ar      1 MOL1        0.0000
      8  C          -2.8137  -50.4555    5.9479 C.ar      1 MOL1        0.0000
      9  C          -1.9309  -49.3561    5.9665 C.ar      1 MOL1        0.0000
     10  C          -0.5423  -49.5315    6.1792 C.ar      1 MOL1        0.0000
     11  C           0.5894  -48.6424    6.2612 C.ar      1 MOL1        0.0000
     12  C           0.5190  -47.1480    6.1437 C.3       1 MOL1        0.0000
     13  C           0.1328  -46.5094    7.4893 C.3       1 MOL1        0.0000
     14  C          -0.4950  -45.1179    7.3420 C.3       1 MOL1        0.0000
     15  O          -1.7518  -45.1827    6.6677 O.3       1 MOL1        0.0000
     16  C          -2.9007  -45.4447    7.3863 C.ar      1 MOL1        0.0000
     17  C          -4.1347  -45.3236    6.7054 C.ar      1 MOL1        0.0000
     18  C          -5.3517  -45.5713    7.3725 C.ar      1 MOL1        0.0000
     19  C          -5.3529  -45.9452    8.7282 C.ar      1 MOL1        0.0000
     20  C          -4.1342  -46.0720    9.4200 C.ar      1 MOL1        0.0000
     21  C          -2.9148  -45.8260    8.7539 C.ar      1 MOL1        0.0000
     22  N           1.2866  -50.7509    6.5622 N.pl3     1 MOL1        0.0000
     23  C          -4.1627  -44.9217    5.2458 C.3       1 MOL1        0.0000
     24  H          -0.5638  -52.9671    6.5011 H         1 MOL1        0.0000
     25  H          -3.0050  -52.6004    6.1330 H         1 MOL1        0.0000
     26  H          -3.8700  -50.2982    5.7799 H         1 MOL1        0.0000
     27  H          -2.3259  -48.3598    5.8190 H         1 MOL1        0.0000
     28  H          -0.2135  -46.8785    5.3815 H         1 MOL1        0.0000
     29  H           1.4649  -46.7366    5.7895 H         1 MOL1        0.0000
     30  H           1.0182  -46.4639    8.1280 H         1 MOL1        0.0000
     31  H          -0.5765  -47.1565    8.0046 H         1 MOL1        0.0000
     32  H           0.1695  -44.4859    6.7482 H         1 MOL1        0.0000
     33  H          -0.5828  -44.6195    8.3070 H         1 MOL1        0.0000
     34  H          -2.0028  -45.9352    9.3219 H         1 MOL1        0.0000
     35  H           1.9623  -51.4846    6.7363 H         1 MOL1        0.0000
     36  H          -4.1392  -46.3569   10.4611 H         1 MOL1        0.0000
     37  H          -6.2867  -46.1359    9.2357 H         1 MOL1        0.0000
     38  H          -6.2915  -45.4738    6.8474 H         1 MOL1        0.0000
     39  H          -5.1786  -44.9286    4.8507 H         1 MOL1        0.0000
     40  H          -3.7525  -43.9155    5.1252 H         1 MOL1        0.0000
     41  H          -3.5599  -45.6141    4.6558 H         1 MOL1        0.0000
@<TRIPOS>BOND
     1      1      2 1 
     2      2      3 2 
     3      2      4 1 
     4      4     11 ar
     5      4     22 ar
     6      5      6 ar
     7      5     10 ar
     8      5     22 ar
     9      6      7 ar
    10      7      8 ar
    11      8      9 ar
    12      9     10 ar
    13     10     11 ar
    14     11     12 1 
    15     12     13 1 
    16     13     14 1 
    17     14     15 1 
    18     15     16 1 
    19     16     17 ar
    20     16     21 ar
    21     17     18 ar
    22     17     23 1 
    23     18     19 ar
    24     19     20 ar
    25     20     21 ar
    26      6     24 1 
    27      7     25 1 
    28      8     26 1 
    29      9     27 1 
    30     12     28 1 
    31     12     29 1 
    32     13     30 1 
    33     13     31 1 
    34     14     32 1 
    35     14     33 1 
    36     18     38 1 
    37     19     37 1 
    38     20     36 1 
    39     21     34 1 
    40     22     35 1 
    41     23     39 1 
    42     23     40 1 
    43     23     41 1 
@<TRIPOS>SUBSTRUCTURE
     1 MOL1         1 MOLECULE 1 A  MOL 
# Molecule written by the XED library from Cresset
