@<TRIPOS>MOLECULE
29
    41     43      1
SMALL
USER_CHARGES
@<TRIPOS>ATOM
      1  O           3.4235  -47.4990    6.3034 O.co2     1 MOL1        0.0000
      2  C           3.0281  -48.6146    6.7306 C.2       1 MOL1        0.0000
      3  O           3.7777  -49.3670    7.3880 O.2       1 MOL1        0.0000
      4  C           1.6462  -49.0711    6.4354 C.ar      1 MOL1        0.0000
      5  C          -0.0124  -50.6359    6.4318 C.ar      1 MOL1        0.0000
      6  C          -0.8349  -51.7756    6.5605 C.ar      1 MOL1        0.0000
      7  C          -2.1553  -51.7463    6.0659 C.ar      1 MOL1        0.0000
      8  C          -2.6490  -50.5721    5.4633 C.ar      1 MOL1        0.0000
      9  C          -1.8305  -49.4302    5.3533 C.ar      1 MOL1        0.0000
     10  C          -0.4988  -49.4369    5.8254 C.ar      1 MOL1        0.0000
     11  C           0.5621  -48.4620    5.8353 C.ar      1 MOL1        0.0000
     12  C           0.4741  -47.0549    5.3074 C.3       1 MOL1        0.0000
     13  C           0.2593  -45.9878    6.3953 C.3       1 MOL1        0.0000
     14  C          -0.9490  -46.2558    7.3130 C.3       1 MOL1        0.0000
     15  O          -2.1030  -46.5044    6.5056 O.3       1 MOL1        0.0000
     16  C          -3.2262  -45.7691    6.7833 C.ar      1 MOL1        0.0000
     17  C          -3.9083  -45.8174    8.0302 C.ar      1 MOL1        0.0000
     18  C          -5.0388  -45.0029    8.2360 C.ar      1 MOL1        0.0000
     19  C          -5.5258  -44.1802    7.2022 C.ar      1 MOL1        0.0000
     20  C          -4.8795  -44.1671    5.9535 C.ar      1 MOL1        0.0000
     21  C          -3.7380  -44.9715    5.7491 C.ar      1 MOL1        0.0000
     22  N           1.2854  -50.3610    6.7961 N.pl3     1 MOL1        0.0000
     23  F          -2.4349  -46.1863    9.7809 F         1 MOL1        0.0000
     24  C          -3.4514  -46.7482    9.1429 C.3       1 MOL1        0.0000
     25  F          -4.4113  -46.9759   10.0447 F         1 MOL1        0.0000
     26  F          -3.0629  -47.9301    8.6622 F         1 MOL1        0.0000
     27  H          -0.4485  -52.6682    7.0285 H         1 MOL1        0.0000
     28  H          -2.7847  -52.6214    6.1499 H         1 MOL1        0.0000
     29  H          -3.6651  -50.5448    5.0945 H         1 MOL1        0.0000
     30  H          -2.2263  -48.5307    4.8977 H         1 MOL1        0.0000
     31  H          -0.3446  -46.9804    4.5798 H         1 MOL1        0.0000
     32  H           1.3764  -46.8128    4.7403 H         1 MOL1        0.0000
     33  H           0.1490  -45.0086    5.9257 H         1 MOL1        0.0000
     34  H           1.1532  -45.9271    7.0191 H         1 MOL1        0.0000
     35  H          -1.0828  -45.4053    7.9823 H         1 MOL1        0.0000
     36  H          -0.7338  -47.1269    7.9398 H         1 MOL1        0.0000
     37  H          -3.2615  -44.9721    4.7823 H         1 MOL1        0.0000
     38  H           1.9552  -50.9988    7.2443 H         1 MOL1        0.0000
     39  H          -5.2563  -43.5482    5.1476 H         1 MOL1        0.0000
     40  H          -6.4020  -43.5721    7.3503 H         1 MOL1        0.0000
     41  H          -5.5568  -45.0126    9.1813 H         1 MOL1        0.0000
@<TRIPOS>BOND
     1      1      2 1 
     2      2      3 2 
     3      2      4 1 
     4      4     11 ar
     5      4     22 ar
     6      5      6 ar
     7      5     10 ar
     8      5     22 ar
     9      6      7 ar
    10      7      8 ar
    11      8      9 ar
    12      9     10 ar
    13     10     11 ar
    14     11     12 1 
    15     12     13 1 
    16     13     14 1 
    17     14     15 1 
    18     15     16 1 
    19     16     17 ar
    20     16     21 ar
    21     17     18 ar
    22     17     24 1 
    23     18     19 ar
    24     19     20 ar
    25     20     21 ar
    26     23     24 1 
    27     24     25 1 
    28     24     26 1 
    29      6     27 1 
    30      7     28 1 
    31      8     29 1 
    32      9     30 1 
    33     12     31 1 
    34     12     32 1 
    35     13     33 1 
    36     13     34 1 
    37     14     35 1 
    38     14     36 1 
    39     18     41 1 
    40     19     40 1 
    41     20     39 1 
    42     21     37 1 
    43     22     38 1 
@<TRIPOS>SUBSTRUCTURE
     1 MOL1         1 MOLECULE 1 A  MOL 
# Molecule written by the XED library from Cresset
