@<TRIPOS>MOLECULE
30
    41     43      1
SMALL
USER_CHARGES
@<TRIPOS>ATOM
      1  O           3.7086  -50.0138    7.0134 O.co2     1 MOL1        0.0000
      2  C           3.0488  -49.0009    6.6642 C.2       1 MOL1        0.0000
      3  O           3.5629  -47.8679    6.6025 O.2       1 MOL1        0.0000
      4  C           1.6061  -49.1679    6.3503 C.ar      1 MOL1        0.0000
      5  C          -0.3127  -50.3896    6.2492 C.ar      1 MOL1        0.0000
      6  C          -1.3056  -51.3826    6.3084 C.ar      1 MOL1        0.0000
      7  C          -2.6361  -51.0463    5.9759 C.ar      1 MOL1        0.0000
      8  C          -2.9446  -49.7367    5.5736 C.ar      1 MOL1        0.0000
      9  C          -1.9388  -48.7516    5.5050 C.ar      1 MOL1        0.0000
     10  C          -0.5911  -49.0537    5.8486 C.ar      1 MOL1        0.0000
     11  C           0.6353  -48.2926    5.9041 C.ar      1 MOL1        0.0000
     12  C           0.8089  -46.8342    5.5612 C.3       1 MOL1        0.0000
     13  C           0.8737  -45.9328    6.8109 C.3       1 MOL1        0.0000
     14  C          -0.4305  -45.9192    7.6156 C.3       1 MOL1        0.0000
     15  O          -1.3927  -45.1905    6.8684 O.3       1 MOL1        0.0000
     16  C          -2.6929  -45.1866    7.3131 C.ar      1 MOL1        0.0000
     17  C          -3.1490  -45.8766    8.4660 C.ar      1 MOL1        0.0000
     18  C          -4.5087  -45.8424    8.8313 C.ar      1 MOL1        0.0000
     19  C          -5.4211  -45.0930    8.0629 C.ar      1 MOL1        0.0000
     20  C          -4.9781  -44.3962    6.9226 C.ar      1 MOL1        0.0000
     21  C          -3.6217  -44.4510    6.5497 C.ar      1 MOL1        0.0000
     22  N           1.0444  -50.4156    6.5272 N.pl3     1 MOL1        0.0000
     23  C          -4.9806  -46.6345   10.0352 C.3       1 MOL1        0.0000
     24  H          -1.0551  -52.3834    6.6110 H         1 MOL1        0.0000
     25  H          -3.4056  -51.7983    6.0255 H         1 MOL1        0.0000
     26  H          -3.9643  -49.4862    5.3115 H         1 MOL1        0.0000
     27  H          -2.1991  -47.7505    5.1961 H         1 MOL1        0.0000
     28  H           0.0010  -46.5000    4.9071 H         1 MOL1        0.0000
     29  H           1.7256  -46.6956    4.9795 H         1 MOL1        0.0000
     30  H           1.1203  -44.9133    6.5123 H         1 MOL1        0.0000
     31  H           1.6903  -46.2673    7.4466 H         1 MOL1        0.0000
     32  H          -0.2709  -45.4377    8.5803 H         1 MOL1        0.0000
     33  H          -0.7619  -46.9401    7.8074 H         1 MOL1        0.0000
     34  H          -2.4734  -46.4519    9.0781 H         1 MOL1        0.0000
     35  H          -3.2874  -43.9301    5.6654 H         1 MOL1        0.0000
     36  H           1.6065  -51.2075    6.8324 H         1 MOL1        0.0000
     37  H          -5.6766  -43.8255    6.3274 H         1 MOL1        0.0000
     38  H          -6.4649  -45.0576    8.3356 H         1 MOL1        0.0000
     39  H          -6.0496  -46.4952   10.2062 H         1 MOL1        0.0000
     40  H          -4.7949  -47.6981    9.8697 H         1 MOL1        0.0000
     41  H          -4.4404  -46.3264   10.9326 H         1 MOL1        0.0000
@<TRIPOS>BOND
     1      1      2 1 
     2      2      3 2 
     3      2      4 1 
     4      4     11 ar
     5      4     22 ar
     6      5      6 ar
     7      5     10 ar
     8      5     22 ar
     9      6      7 ar
    10      7      8 ar
    11      8      9 ar
    12      9     10 ar
    13     10     11 ar
    14     11     12 1 
    15     12     13 1 
    16     13     14 1 
    17     14     15 1 
    18     15     16 1 
    19     16     17 ar
    20     16     21 ar
    21     17     18 ar
    22     18     19 ar
    23     18     23 1 
    24     19     20 ar
    25     20     21 ar
    26      6     24 1 
    27      7     25 1 
    28      8     26 1 
    29      9     27 1 
    30     12     28 1 
    31     12     29 1 
    32     13     30 1 
    33     13     31 1 
    34     14     32 1 
    35     14     33 1 
    36     17     34 1 
    37     19     38 1 
    38     20     37 1 
    39     21     35 1 
    40     22     36 1 
    41     23     39 1 
    42     23     40 1 
    43     23     41 1 
@<TRIPOS>SUBSTRUCTURE
     1 MOL1         1 MOLECULE 1 A  MOL 
# Molecule written by the XED library from Cresset
