@<TRIPOS>MOLECULE
31
    41     43      1
SMALL
USER_CHARGES
@<TRIPOS>ATOM
      1  O           3.5641  -47.7534    6.2143 O.co2     1 MOL1        0.0000
      2  C           3.0122  -48.7554    6.7454 C.2       1 MOL1        0.0000
      3  O           3.6123  -49.5070    7.5449 O.2       1 MOL1        0.0000
      4  C           1.5969  -49.0608    6.3966 C.ar      1 MOL1        0.0000
      5  C          -0.2442  -50.4134    6.4643 C.ar      1 MOL1        0.0000
      6  C          -1.2037  -51.4312    6.6788 C.ar      1 MOL1        0.0000
      7  C          -2.5043  -51.2795    6.1613 C.ar      1 MOL1        0.0000
      8  C          -2.8377  -50.1268    5.4226 C.ar      1 MOL1        0.0000
      9  C          -1.8793  -49.1151    5.2073 C.ar      1 MOL1        0.0000
     10  C          -0.5657  -49.2279    5.7279 C.ar      1 MOL1        0.0000
     11  C           0.6141  -48.3957    5.7009 C.ar      1 MOL1        0.0000
     12  C           0.7301  -47.0351    5.0529 C.3       1 MOL1        0.0000
     13  C           0.7552  -45.8921    6.0871 C.3       1 MOL1        0.0000
     14  C          -0.5322  -45.7699    6.9086 C.3       1 MOL1        0.0000
     15  O          -1.5383  -45.2373    6.0607 O.3       1 MOL1        0.0000
     16  C          -2.7966  -45.0645    6.5801 C.ar      1 MOL1        0.0000
     17  C          -3.2770  -45.7162    7.7440 C.ar      1 MOL1        0.0000
     18  C          -4.5937  -45.5045    8.1936 C.ar      1 MOL1        0.0000
     19  C          -5.4351  -44.6171    7.4875 C.ar      1 MOL1        0.0000
     20  C          -4.9679  -43.9681    6.3316 C.ar      1 MOL1        0.0000
     21  C          -3.6549  -44.1973    5.8830 C.ar      1 MOL1        0.0000
     22  N           1.0786  -50.2786    6.8435 N.pl3     1 MOL1        0.0000
     23  F          -5.7749  -45.4084   10.2138 F         1 MOL1        0.0000
     24  C          -5.1355  -46.2506    9.4023 C.3       1 MOL1        0.0000
     25  F          -5.9929  -47.1821    8.9848 F         1 MOL1        0.0000
     26  F          -4.1591  -46.8446   10.0908 F         1 MOL1        0.0000
     27  H          -0.9293  -52.3080    7.2373 H         1 MOL1        0.0000
     28  H          -3.2343  -52.0545    6.3287 H         1 MOL1        0.0000
     29  H          -3.8309  -50.0299    5.0245 H         1 MOL1        0.0000
     30  H          -2.1597  -48.2368    4.6387 H         1 MOL1        0.0000
     31  H          -0.0757  -46.8844    4.3251 H         1 MOL1        0.0000
     32  H           1.6496  -47.0026    4.4706 H         1 MOL1        0.0000
     33  H           0.9511  -44.9495    5.5770 H         1 MOL1        0.0000
     34  H           1.5892  -46.0434    6.7679 H         1 MOL1        0.0000
     35  H          -0.3754  -45.0979    7.7560 H         1 MOL1        0.0000
     36  H          -0.8071  -46.7439    7.3136 H         1 MOL1        0.0000
     37  H          -2.6512  -46.4014    8.2886 H         1 MOL1        0.0000
     38  H          -3.3054  -43.7005    4.9910 H         1 MOL1        0.0000
     39  H           1.6576  -50.9409    7.3678 H         1 MOL1        0.0000
     40  H          -5.6168  -43.2999    5.7853 H         1 MOL1        0.0000
     41  H          -6.4444  -44.4497    7.8279 H         1 MOL1        0.0000
@<TRIPOS>BOND
     1      1      2 1 
     2      2      3 2 
     3      2      4 1 
     4      4     11 ar
     5      4     22 ar
     6      5      6 ar
     7      5     10 ar
     8      5     22 ar
     9      6      7 ar
    10      7      8 ar
    11      8      9 ar
    12      9     10 ar
    13     10     11 ar
    14     11     12 1 
    15     12     13 1 
    16     13     14 1 
    17     14     15 1 
    18     15     16 1 
    19     16     17 ar
    20     16     21 ar
    21     17     18 ar
    22     18     19 ar
    23     18     24 1 
    24     19     20 ar
    25     20     21 ar
    26     23     24 1 
    27     24     25 1 
    28     24     26 1 
    29      6     27 1 
    30      7     28 1 
    31      8     29 1 
    32      9     30 1 
    33     12     31 1 
    34     12     32 1 
    35     13     33 1 
    36     13     34 1 
    37     14     35 1 
    38     14     36 1 
    39     17     37 1 
    40     19     41 1 
    41     20     40 1 
    42     21     38 1 
    43     22     39 1 
@<TRIPOS>SUBSTRUCTURE
     1 MOL1         1 MOLECULE 1 A  MOL 
# Molecule written by the XED library from Cresset
