@<TRIPOS>MOLECULE
32
    41     43      1
SMALL
USER_CHARGES
@<TRIPOS>ATOM
      1  O           3.5631  -47.8126    6.2553 O.co2     1 MOL1        0.0000
      2  C           3.0220  -48.8134    6.7746 C.2       1 MOL1        0.0000
      3  O           3.6456  -49.5539    7.5776 O.2       1 MOL1        0.0000
      4  C           1.6132  -49.1482    6.4568 C.ar      1 MOL1        0.0000
      5  C          -0.2315  -50.4988    6.6095 C.ar      1 MOL1        0.0000
      6  C          -1.1869  -51.5016    6.8846 C.ar      1 MOL1        0.0000
      7  C          -2.4765  -51.4084    6.3236 C.ar      1 MOL1        0.0000
      8  C          -2.8024  -50.3149    5.4953 C.ar      1 MOL1        0.0000
      9  C          -1.8441  -49.3159    5.2323 C.ar      1 MOL1        0.0000
     10  C          -0.5398  -49.3743    5.7791 C.ar      1 MOL1        0.0000
     11  C           0.6317  -48.5299    5.7107 C.ar      1 MOL1        0.0000
     12  C           0.7399  -47.2203    4.9660 C.3       1 MOL1        0.0000
     13  C           0.8620  -45.9947    5.8916 C.3       1 MOL1        0.0000
     14  C          -0.3438  -45.7995    6.8144 C.3       1 MOL1        0.0000
     15  O          -1.4784  -45.4115    6.0512 O.3       1 MOL1        0.0000
     16  C          -2.6600  -45.1948    6.7290 C.ar      1 MOL1        0.0000
     17  C          -2.8553  -45.5250    8.0921 C.ar      1 MOL1        0.0000
     18  C          -4.0865  -45.2606    8.7177 C.ar      1 MOL1        0.0000
     19  C          -5.1349  -44.6543    8.0064 C.ar      1 MOL1        0.0000
     20  C          -4.9501  -44.3373    6.6470 C.ar      1 MOL1        0.0000
     21  C          -3.7260  -44.6100    6.0126 C.ar      1 MOL1        0.0000
     22  N           1.0888  -50.3185    6.9933 N.pl3     1 MOL1        0.0000
     23  C          -6.4399  -44.3423    8.7154 C.3       1 MOL1        0.0000
     24  H          -0.9210  -52.3321    7.5184 H         1 MOL1        0.0000
     25  H          -3.2056  -52.1744    6.5387 H         1 MOL1        0.0000
     26  H          -3.7891  -50.2438    5.0714 H         1 MOL1        0.0000
     27  H          -2.1041  -48.4784    4.5977 H         1 MOL1        0.0000
     28  H          -0.1267  -47.0932    4.3200 H         1 MOL1        0.0000
     29  H           1.6015  -47.2535    4.3013 H         1 MOL1        0.0000
     30  H           1.0037  -45.1044    5.2821 H         1 MOL1        0.0000
     31  H           1.7575  -46.0686    6.5120 H         1 MOL1        0.0000
     32  H          -0.1118  -45.0203    7.5436 H         1 MOL1        0.0000
     33  H          -0.5318  -46.7227    7.3641 H         1 MOL1        0.0000
     34  H          -2.0818  -45.9790    8.6894 H         1 MOL1        0.0000
     35  H          -3.6033  -44.3562    4.9706 H         1 MOL1        0.0000
     36  H           1.6676  -50.9263    7.5783 H         1 MOL1        0.0000
     37  H          -5.7468  -43.8723    6.0826 H         1 MOL1        0.0000
     38  H          -4.2172  -45.5201    9.7567 H         1 MOL1        0.0000
     39  H          -7.1513  -43.8475    8.0470 H         1 MOL1        0.0000
     40  H          -6.8942  -45.2648    9.0853 H         1 MOL1        0.0000
     41  H          -6.2534  -43.6836    9.5682 H         1 MOL1        0.0000
@<TRIPOS>BOND
     1      1      2 1 
     2      2      3 2 
     3      2      4 1 
     4      4     11 ar
     5      4     22 ar
     6      5      6 ar
     7      5     10 ar
     8      5     22 ar
     9      6      7 ar
    10      7      8 ar
    11      8      9 ar
    12      9     10 ar
    13     10     11 ar
    14     11     12 1 
    15     12     13 1 
    16     13     14 1 
    17     14     15 1 
    18     15     16 1 
    19     16     17 ar
    20     16     21 ar
    21     17     18 ar
    22     18     19 ar
    23     19     20 ar
    24     19     23 1 
    25     20     21 ar
    26      6     24 1 
    27      7     25 1 
    28      8     26 1 
    29      9     27 1 
    30     12     28 1 
    31     12     29 1 
    32     13     30 1 
    33     13     31 1 
    34     14     32 1 
    35     14     33 1 
    36     17     34 1 
    37     18     38 1 
    38     20     37 1 
    39     21     35 1 
    40     22     36 1 
    41     23     39 1 
    42     23     40 1 
    43     23     41 1 
@<TRIPOS>SUBSTRUCTURE
     1 MOL1         1 MOLECULE 1 A  MOL 
# Molecule written by the XED library from Cresset
