@<TRIPOS>MOLECULE
33
    38     40      1
SMALL
USER_CHARGES
@<TRIPOS>ATOM
      1  O           3.6157  -50.1315    7.3800 O.co2     1 MOL1        0.0000
      2  C           3.0170  -49.1138    6.9676 C.2       1 MOL1        0.0000
      3  O           3.5644  -47.9851    6.9019 O.2       1 MOL1        0.0000
      4  C           1.6043  -49.2459    6.5419 C.ar      1 MOL1        0.0000
      5  C          -0.3113  -50.4722    6.2833 C.ar      1 MOL1        0.0000
      6  C          -1.3178  -51.4535    6.2650 C.ar      1 MOL1        0.0000
      7  C          -2.5967  -51.1141    5.7749 C.ar      1 MOL1        0.0000
      8  C          -2.8523  -49.8053    5.3101 C.ar      1 MOL1        0.0000
      9  C          -1.8339  -48.8336    5.3312 C.ar      1 MOL1        0.0000
     10  C          -0.5363  -49.1416    5.8192 C.ar      1 MOL1        0.0000
     11  C           0.6789  -48.3880    5.9873 C.ar      1 MOL1        0.0000
     12  C           0.8824  -46.9418    5.6154 C.3       1 MOL1        0.0000
     13  C           0.6891  -45.9795    6.8002 C.3       1 MOL1        0.0000
     14  C          -0.7339  -45.9723    7.3808 C.3       1 MOL1        0.0000
     15  O          -1.6585  -45.6662    6.3443 O.3       1 MOL1        0.0000
     16  C          -2.9587  -45.3534    6.6806 C.ar      1 MOL1        0.0000
     17  C          -3.4415  -45.2780    8.0126 C.ar      1 MOL1        0.0000
     18  C          -4.7727  -44.8870    8.2638 C.ar      1 MOL1        0.0000
     19  C          -5.6345  -44.5827    7.1953 C.ar      1 MOL1        0.0000
     20  C          -5.1783  -44.6966    5.8690 C.ar      1 MOL1        0.0000
     21  C          -3.8496  -45.0887    5.6179 C.ar      1 MOL1        0.0000
     22  N           1.0091  -50.4890    6.6902 N.pl3     1 MOL1        0.0000
     23  CL         -7.2450  -44.0498    7.5067 Cl        1 MOL1        0.0000
     24  H          -1.0976  -52.4485    6.6218 H         1 MOL1        0.0000
     25  H          -3.3720  -51.8638    5.7580 H         1 MOL1        0.0000
     26  H          -3.8398  -49.5448    4.9387 H         1 MOL1        0.0000
     27  H          -2.0372  -47.8283    4.9825 H         1 MOL1        0.0000
     28  H           0.2119  -46.6666    4.8034 H         1 MOL1        0.0000
     29  H           1.8875  -46.8041    5.2117 H         1 MOL1        0.0000
     30  H           0.9411  -44.9683    6.4741 H         1 MOL1        0.0000
     31  H           1.3987  -46.2206    7.5935 H         1 MOL1        0.0000
     32  H          -0.7710  -45.2292    8.1737 H         1 MOL1        0.0000
     33  H          -0.9778  -46.9317    7.8279 H         1 MOL1        0.0000
     34  H          -2.8136  -45.5076    8.8532 H         1 MOL1        0.0000
     35  H          -3.5008  -45.1803    4.6040 H         1 MOL1        0.0000
     36  H           1.5399  -51.2626    7.0744 H         1 MOL1        0.0000
     37  H          -5.8318  -44.4759    5.0392 H         1 MOL1        0.0000
     38  H          -5.1205  -44.8093    9.2815 H         1 MOL1        0.0000
@<TRIPOS>BOND
     1      1      2 1 
     2      2      3 2 
     3      2      4 1 
     4      4     11 ar
     5      4     22 ar
     6      5      6 ar
     7      5     10 ar
     8      5     22 ar
     9      6      7 ar
    10      7      8 ar
    11      8      9 ar
    12      9     10 ar
    13     10     11 ar
    14     11     12 1 
    15     12     13 1 
    16     13     14 1 
    17     14     15 1 
    18     15     16 1 
    19     16     17 ar
    20     16     21 ar
    21     17     18 ar
    22     18     19 ar
    23     19     20 ar
    24     19     23 1 
    25     20     21 ar
    26      6     24 1 
    27      7     25 1 
    28      8     26 1 
    29      9     27 1 
    30     12     28 1 
    31     12     29 1 
    32     13     30 1 
    33     13     31 1 
    34     14     32 1 
    35     14     33 1 
    36     17     34 1 
    37     18     38 1 
    38     20     37 1 
    39     21     35 1 
    40     22     36 1 
@<TRIPOS>SUBSTRUCTURE
     1 MOL1         1 MOLECULE 1 A  MOL 
# Molecule written by the XED library from Cresset
