@<TRIPOS>MOLECULE
35
    41     43      1
SMALL
USER_CHARGES
@<TRIPOS>ATOM
      1  O           3.5648  -47.8113    6.2796 O.co2     1 MOL1        0.0000
      2  C           3.0310  -48.8242    6.8004 C.2       1 MOL1        0.0000
      3  O           3.6630  -49.5724    7.5811 O.2       1 MOL1        0.0000
      4  C           1.6183  -49.1519    6.4787 C.ar      1 MOL1        0.0000
      5  C          -0.2217  -50.4968    6.5938 C.ar      1 MOL1        0.0000
      6  C          -1.1816  -51.5029    6.8463 C.ar      1 MOL1        0.0000
      7  C          -2.4635  -51.3995    6.2697 C.ar      1 MOL1        0.0000
      8  C          -2.7770  -50.2885    5.4590 C.ar      1 MOL1        0.0000
      9  C          -1.8231  -49.2850    5.2249 C.ar      1 MOL1        0.0000
     10  C          -0.5246  -49.3637    5.7854 C.ar      1 MOL1        0.0000
     11  C           0.6491  -48.5159    5.7434 C.ar      1 MOL1        0.0000
     12  C           0.7691  -47.1896    5.0377 C.3       1 MOL1        0.0000
     13  C           0.8370  -45.9992    6.0190 C.3       1 MOL1        0.0000
     14  C          -0.4250  -45.8461    6.8783 C.3       1 MOL1        0.0000
     15  O          -1.5112  -45.4316    6.0568 O.3       1 MOL1        0.0000
     16  C          -2.7184  -45.2208    6.6770 C.ar      1 MOL1        0.0000
     17  C          -3.0811  -45.7923    7.9227 C.ar      1 MOL1        0.0000
     18  C          -4.3343  -45.5354    8.5139 C.ar      1 MOL1        0.0000
     19  C          -5.2346  -44.6602    7.8591 C.ar      1 MOL1        0.0000
     20  C          -4.8952  -44.1086    6.6071 C.ar      1 MOL1        0.0000
     21  C          -3.6498  -44.3988    6.0191 C.ar      1 MOL1        0.0000
     22  N           1.0877  -50.3279    6.9944 N.pl3     1 MOL1        0.0000
     23  CL         -6.7603  -44.2478    8.5596 Cl        1 MOL1        0.0000
     24  C          -4.6696  -46.2368    9.8281 C.3       1 MOL1        0.0000
     25  H          -0.9320  -52.3460    7.4726 H         1 MOL1        0.0000
     26  H          -3.2041  -52.1633    6.4560 H         1 MOL1        0.0000
     27  H          -3.7614  -50.2034    5.0261 H         1 MOL1        0.0000
     28  H          -2.0759  -48.4336    4.6099 H         1 MOL1        0.0000
     29  H          -0.0638  -47.0515    4.3496 H         1 MOL1        0.0000
     30  H           1.6702  -47.1961    4.4252 H         1 MOL1        0.0000
     31  H           1.0075  -45.0787    5.4596 H         1 MOL1        0.0000
     32  H           1.6919  -46.1052    6.6889 H         1 MOL1        0.0000
     33  H          -0.2486  -45.0926    7.6503 H         1 MOL1        0.0000
     34  H          -0.6237  -46.7925    7.3796 H         1 MOL1        0.0000
     35  H          -2.4111  -46.4590    8.4420 H         1 MOL1        0.0000
     36  H          -3.4103  -43.9697    5.0602 H         1 MOL1        0.0000
     37  H           1.6574  -50.9325    7.5789 H         1 MOL1        0.0000
     38  H          -5.5902  -43.4580    6.0977 H         1 MOL1        0.0000
     39  H          -5.6654  -45.9873   10.2010 H         1 MOL1        0.0000
     40  H          -4.6293  -47.3190    9.6861 H         1 MOL1        0.0000
     41  H          -3.9434  -45.9806   10.6004 H         1 MOL1        0.0000
@<TRIPOS>BOND
     1      1      2 1 
     2      2      3 2 
     3      2      4 1 
     4      4     11 ar
     5      4     22 ar
     6      5      6 ar
     7      5     10 ar
     8      5     22 ar
     9      6      7 ar
    10      7      8 ar
    11      8      9 ar
    12      9     10 ar
    13     10     11 ar
    14     11     12 1 
    15     12     13 1 
    16     13     14 1 
    17     14     15 1 
    18     15     16 1 
    19     16     17 ar
    20     16     21 ar
    21     17     18 ar
    22     18     19 ar
    23     18     24 1 
    24     19     20 ar
    25     19     23 1 
    26     20     21 ar
    27      6     25 1 
    28      7     26 1 
    29      8     27 1 
    30      9     28 1 
    31     12     29 1 
    32     12     30 1 
    33     13     31 1 
    34     13     32 1 
    35     14     33 1 
    36     14     34 1 
    37     17     35 1 
    38     20     38 1 
    39     21     36 1 
    40     22     37 1 
    41     24     39 1 
    42     24     40 1 
    43     24     41 1 
@<TRIPOS>SUBSTRUCTURE
     1 MOL1         1 MOLECULE 1 A  MOL 
# Molecule written by the XED library from Cresset
