@<TRIPOS>MOLECULE
37
    44     46      1
SMALL
USER_CHARGES
@<TRIPOS>ATOM
      1  O           3.8718  -50.2361    7.2245 O.co2     1 MOL1        0.0000
      2  C           3.1316  -49.2780    6.8995 C.2       1 MOL1        0.0000
      3  O           3.5610  -48.1075    6.8535 O.2       1 MOL1        0.0000
      4  C           1.7186  -49.5691    6.5705 C.ar      1 MOL1        0.0000
      5  C          -0.0592  -50.9948    6.4011 C.ar      1 MOL1        0.0000
      6  C          -0.9536  -52.0849    6.4146 C.ar      1 MOL1        0.0000
      7  C          -2.3089  -51.8726    6.0773 C.ar      1 MOL1        0.0000
      8  C          -2.7528  -50.5878    5.7200 C.ar      1 MOL1        0.0000
      9  C          -1.8514  -49.5039    5.7068 C.ar      1 MOL1        0.0000
     10  C          -0.4753  -49.6825    6.0507 C.ar      1 MOL1        0.0000
     11  C           0.6554  -48.7964    6.1719 C.ar      1 MOL1        0.0000
     12  C           0.6195  -47.3137    5.9496 C.3       1 MOL1        0.0000
     13  C           0.2592  -46.5733    7.2461 C.3       1 MOL1        0.0000
     14  C          -0.2682  -45.1542    7.0159 C.3       1 MOL1        0.0000
     15  O          -1.4266  -45.1828    6.1895 O.3       1 MOL1        0.0000
     16  C          -2.6770  -45.3015    6.7518 C.ar      1 MOL1        0.0000
     17  C          -2.9170  -45.6759    8.0958 C.ar      1 MOL1        0.0000
     18  C          -4.2343  -45.8324    8.5752 C.ar      1 MOL1        0.0000
     19  C          -4.4648  -46.3044    9.9964 C.3       1 MOL1        0.0000
     20  C          -5.3341  -45.5816    7.7206 C.ar      1 MOL1        0.0000
     21  CL         -6.9496  -45.7880    8.3010 Cl        1 MOL1        0.0000
     22  C          -5.0974  -45.1838    6.3837 C.ar      1 MOL1        0.0000
     23  C          -6.2586  -44.9543    5.4353 C.3       1 MOL1        0.0000
     24  C          -3.7754  -45.0569    5.9068 C.ar      1 MOL1        0.0000
     25  N           1.2925  -50.8807    6.6907 N.pl3     1 MOL1        0.0000
     26  H          -0.6099  -53.0639    6.6886 H         1 MOL1        0.0000
     27  H          -3.0079  -52.6920    6.0927 H         1 MOL1        0.0000
     28  H          -3.7876  -50.4245    5.4565 H         1 MOL1        0.0000
     29  H          -2.2150  -48.5192    5.4339 H         1 MOL1        0.0000
     30  H          -0.1070  -47.0886    5.1675 H         1 MOL1        0.0000
     31  H           1.5805  -46.9587    5.5729 H         1 MOL1        0.0000
     32  H           1.1251  -46.5601    7.9062 H         1 MOL1        0.0000
     33  H          -0.5106  -47.1361    7.7765 H         1 MOL1        0.0000
     34  H           0.4899  -44.5605    6.4974 H         1 MOL1        0.0000
     35  H          -0.4532  -44.6511    7.9623 H         1 MOL1        0.0000
     36  H          -2.1047  -45.8853    8.7746 H         1 MOL1        0.0000
     37  H          -5.0633  -45.5829   10.5539 H         1 MOL1        0.0000
     38  H          -4.9883  -47.2627    9.9924 H         1 MOL1        0.0000
     39  H          -3.5238  -46.4500   10.5302 H         1 MOL1        0.0000
     40  H          -5.9144  -44.6062    4.4587 H         1 MOL1        0.0000
     41  H          -6.8176  -45.8821    5.2865 H         1 MOL1        0.0000
     42  H          -6.9402  -44.2052    5.8399 H         1 MOL1        0.0000
     43  H          -3.6027  -44.7867    4.8774 H         1 MOL1        0.0000
     44  H           1.9238  -51.5961    7.0008 H         1 MOL1        0.0000
@<TRIPOS>BOND
     1      1      2 1 
     2      2      3 2 
     3      2      4 1 
     4      4     11 ar
     5      4     25 ar
     6      5      6 ar
     7      5     10 ar
     8      5     25 ar
     9      6      7 ar
    10      7      8 ar
    11      8      9 ar
    12      9     10 ar
    13     10     11 ar
    14     11     12 1 
    15     12     13 1 
    16     13     14 1 
    17     14     15 1 
    18     15     16 1 
    19     16     17 ar
    20     16     24 ar
    21     17     18 ar
    22     18     19 1 
    23     18     20 ar
    24     20     21 1 
    25     20     22 ar
    26     22     23 1 
    27     22     24 ar
    28      6     26 1 
    29      7     27 1 
    30      8     28 1 
    31      9     29 1 
    32     12     30 1 
    33     12     31 1 
    34     13     32 1 
    35     13     33 1 
    36     14     34 1 
    37     14     35 1 
    38     17     36 1 
    39     19     37 1 
    40     19     38 1 
    41     19     39 1 
    42     23     40 1 
    43     23     41 1 
    44     23     42 1 
    45     24     43 1 
    46     25     44 1 
@<TRIPOS>SUBSTRUCTURE
     1 MOL1         1 MOLECULE 1 A  MOL 
# Molecule written by the XED library from Cresset
