@<TRIPOS>MOLECULE
38
    48     51      1
SMALL
USER_CHARGES
@<TRIPOS>ATOM
      1  O           3.5933  -49.9991    7.5555 O.co2     1 MOL1        0.0000
      2  C           3.0001  -49.0713    6.9544 C.2       1 MOL1        0.0000
      3  O           3.5624  -47.9815    6.7110 O.2       1 MOL1        0.0000
      4  C           1.5917  -49.2744    6.5446 C.ar      1 MOL1        0.0000
      5  C          -0.3051  -50.5537    6.4875 C.ar      1 MOL1        0.0000
      6  C          -1.2894  -51.5592    6.6189 C.ar      1 MOL1        0.0000
      7  C          -2.5514  -51.3707    6.0210 C.ar      1 MOL1        0.0000
      8  C          -2.8162  -50.1743    5.3187 C.ar      1 MOL1        0.0000
      9  C          -1.8241  -49.1776    5.2080 C.ar      1 MOL1        0.0000
     10  C          -0.5385  -49.3399    5.7780 C.ar      1 MOL1        0.0000
     11  C           0.6726  -48.5474    5.8120 C.ar      1 MOL1        0.0000
     12  C           0.9017  -47.2144    5.1306 C.3       1 MOL1        0.0000
     13  C           0.4907  -45.9835    5.9602 C.3       1 MOL1        0.0000
     14  C          -1.0329  -45.8412    6.1442 C.3       1 MOL1        0.0000
     15  O          -1.4399  -46.5418    7.3177 O.3       1 MOL1        0.0000
     16  C          -2.6980  -46.2729    7.8035 C.ar      1 MOL1        0.0000
     17  C          -3.7548  -45.7256    7.0283 C.ar      1 MOL1        0.0000
     18  C          -5.0251  -45.4767    7.6009 C.ar      1 MOL1        0.0000
     19  C          -5.2110  -45.7620    8.9755 C.ar      1 MOL1        0.0000
     20  C          -4.1688  -46.3092    9.7409 C.ar      1 MOL1        0.0000
     21  C          -2.9221  -46.5642    9.1578 C.ar      1 MOL1        0.0000
     22  N           1.0006  -50.4682    6.9462 N.pl3     1 MOL1        0.0000
     23  C          -8.2961  -43.9825    5.1869 C.ar      1 MOL1        0.0000
     24  C          -6.9685  -43.6324    4.8677 C.ar      1 MOL1        0.0000
     25  C          -5.9075  -44.1038    5.6742 C.ar      1 MOL1        0.0000
     26  C          -6.1471  -44.9439    6.7916 C.ar      1 MOL1        0.0000
     27  C          -7.4945  -45.2646    7.0984 C.ar      1 MOL1        0.0000
     28  C          -8.5569  -44.7797    6.3153 C.ar      1 MOL1        0.0000
     29  H          -1.0643  -52.4685    7.1557 H         1 MOL1        0.0000
     30  H          -3.3107  -52.1386    6.1032 H         1 MOL1        0.0000
     31  H          -3.7870  -50.0270    4.8621 H         1 MOL1        0.0000
     32  H          -2.0525  -48.2620    4.6806 H         1 MOL1        0.0000
     33  H           0.3591  -47.1826    4.1860 H         1 MOL1        0.0000
     34  H           1.9571  -47.1197    4.8545 H         1 MOL1        0.0000
     35  H           0.8383  -45.1152    5.4100 H         1 MOL1        0.0000
     36  H           1.0193  -45.9535    6.9119 H         1 MOL1        0.0000
     37  H          -1.5694  -46.2175    5.2579 H         1 MOL1        0.0000
     38  H          -1.2608  -44.7804    6.2555 H         1 MOL1        0.0000
     39  H          -3.6128  -45.5208    5.9804 H         1 MOL1        0.0000
     40  H          -2.1258  -46.9747    9.7432 H         1 MOL1        0.0000
     41  H           1.5289  -51.1452    7.4978 H         1 MOL1        0.0000
     42  H          -4.3285  -46.5246   10.7852 H         1 MOL1        0.0000
     43  H          -6.1596  -45.5763    9.4591 H         1 MOL1        0.0000
     44  H          -9.1038  -43.6280    4.5606 H         1 MOL1        0.0000
     45  H          -6.7448  -43.0106    4.0128 H         1 MOL1        0.0000
     46  H          -4.8944  -43.8110    5.4066 H         1 MOL1        0.0000
     47  H          -7.7356  -45.9131    7.9203 H         1 MOL1        0.0000
     48  H          -9.5750  -45.0472    6.5536 H         1 MOL1        0.0000
@<TRIPOS>BOND
     1      1      2 1 
     2      2      3 2 
     3      2      4 1 
     4      4     11 ar
     5      4     22 ar
     6      5      6 ar
     7      5     10 ar
     8      5     22 ar
     9      6      7 ar
    10      7      8 ar
    11      8      9 ar
    12      9     10 ar
    13     10     11 ar
    14     11     12 1 
    15     12     13 1 
    16     13     14 1 
    17     14     15 1 
    18     15     16 1 
    19     16     17 ar
    20     16     21 ar
    21     17     18 ar
    22     18     19 ar
    23     18     26 1 
    24     19     20 ar
    25     20     21 ar
    26     23     24 ar
    27     23     28 ar
    28     24     25 ar
    29     25     26 ar
    30     26     27 ar
    31     27     28 ar
    32      6     29 1 
    33      7     30 1 
    34      8     31 1 
    35      9     32 1 
    36     12     33 1 
    37     12     34 1 
    38     13     35 1 
    39     13     36 1 
    40     14     37 1 
    41     14     38 1 
    42     17     39 1 
    43     19     43 1 
    44     20     42 1 
    45     21     40 1 
    46     22     41 1 
    47     23     44 1 
    48     24     45 1 
    49     25     46 1 
    50     27     47 1 
    51     28     48 1 
@<TRIPOS>SUBSTRUCTURE
     1 MOL1         1 MOLECULE 1 A  MOL 
# Molecule written by the XED library from Cresset
