@<TRIPOS>MOLECULE
39
    48     51      1
SMALL
USER_CHARGES
@<TRIPOS>ATOM
      1  O           3.8280  -50.6234    7.4838 O.co2     1 MOL1        0.0000
      2  C           3.3210  -49.6151    6.9243 C.2       1 MOL1        0.0000
      3  O           3.9054  -48.5248    6.8176 O.2       1 MOL1        0.0000
      4  C           1.9393  -49.7707    6.3969 C.ar      1 MOL1        0.0000
      5  C          -0.0209  -50.9269    6.3143 C.ar      1 MOL1        0.0000
      6  C          -1.0754  -51.8407    6.4953 C.ar      1 MOL1        0.0000
      7  C          -2.3593  -51.5145    6.0248 C.ar      1 MOL1        0.0000
      8  C          -2.5689  -50.3046    5.3500 C.ar      1 MOL1        0.0000
      9  C          -1.5021  -49.4040    5.1503 C.ar      1 MOL1        0.0000
     10  C          -0.2163  -49.6827    5.6368 C.ar      1 MOL1        0.0000
     11  C           1.0640  -48.9793    5.6739 C.ar      1 MOL1        0.0000
     12  C           1.3228  -47.6243    5.1362 C.3       1 MOL1        0.0000
     13  C           0.4437  -46.5592    5.8286 C.3       1 MOL1        0.0000
     14  C           0.1816  -46.7275    7.3595 C.3       1 MOL1        0.0000
     15  O          -0.4798  -45.6317    7.9896 O.3       1 MOL1        0.0000
     16  C          -1.8076  -45.4558    7.6772 C.ar      1 MOL1        0.0000
     17  C          -2.8302  -45.7085    8.6264 C.ar      1 MOL1        0.0000
     18  C          -4.1835  -45.4281    8.3011 C.ar      1 MOL1        0.0000
     19  C          -4.5494  -44.9452    7.0122 C.ar      1 MOL1        0.0000
     20  C          -3.5003  -44.7379    6.0858 C.ar      1 MOL1        0.0000
     21  C          -2.1611  -44.9745    6.4195 C.ar      1 MOL1        0.0000
     22  N           1.2913  -50.9433    6.7123 N.pl3     1 MOL1        0.0000
     23  C          -8.6255  -44.3363    5.6579 C.ar      1 MOL1        0.0000
     24  C          -7.5720  -43.6313    5.0628 C.ar      1 MOL1        0.0000
     25  C          -6.2570  -43.7913    5.5445 C.ar      1 MOL1        0.0000
     26  C          -5.9622  -44.6926    6.6073 C.ar      1 MOL1        0.0000
     27  C          -7.0522  -45.3703    7.2070 C.ar      1 MOL1        0.0000
     28  C          -8.3685  -45.1909    6.7365 C.ar      1 MOL1        0.0000
     29  H          -0.8704  -52.7535    7.0353 H         1 MOL1        0.0000
     30  H          -3.1578  -52.2073    6.1966 H         1 MOL1        0.0000
     31  H          -3.5590  -50.0501    5.0068 H         1 MOL1        0.0000
     32  H          -1.6958  -48.4565    4.6509 H         1 MOL1        0.0000
     33  H           1.1281  -47.6472    4.0542 H         1 MOL1        0.0000
     34  H           2.3865  -47.3967    5.2048 H         1 MOL1        0.0000
     35  H          -0.5469  -46.5763    5.3452 H         1 MOL1        0.0000
     36  H           0.8593  -45.5949    5.5863 H         1 MOL1        0.0000
     37  H           1.1167  -46.8600    7.9082 H         1 MOL1        0.0000
     38  H          -0.4138  -47.6220    7.5773 H         1 MOL1        0.0000
     39  H          -2.5705  -46.1051    9.6013 H         1 MOL1        0.0000
     40  H          -1.3614  -44.7848    5.7081 H         1 MOL1        0.0000
     41  H           1.7986  -51.6652    7.2257 H         1 MOL1        0.0000
     42  H          -3.7247  -44.3925    5.0868 H         1 MOL1        0.0000
     43  H          -4.9356  -45.6033    9.0596 H         1 MOL1        0.0000
     44  H          -9.6276  -44.2281    5.2749 H         1 MOL1        0.0000
     45  H          -7.7574  -42.9771    4.2289 H         1 MOL1        0.0000
     46  H          -5.4770  -43.2223    5.0608 H         1 MOL1        0.0000
     47  H          -6.8793  -46.0650    8.0204 H         1 MOL1        0.0000
     48  H          -9.1764  -45.7346    7.1984 H         1 MOL1        0.0000
@<TRIPOS>BOND
     1      1      2 1 
     2      2      3 2 
     3      2      4 1 
     4      4     11 ar
     5      4     22 ar
     6      5      6 ar
     7      5     10 ar
     8      5     22 ar
     9      6      7 ar
    10      7      8 ar
    11      8      9 ar
    12      9     10 ar
    13     10     11 ar
    14     11     12 1 
    15     12     13 1 
    16     13     14 1 
    17     14     15 1 
    18     15     16 1 
    19     16     17 ar
    20     16     21 ar
    21     17     18 ar
    22     18     19 ar
    23     19     20 ar
    24     19     26 1 
    25     20     21 ar
    26     23     24 ar
    27     23     28 ar
    28     24     25 ar
    29     25     26 ar
    30     26     27 ar
    31     27     28 ar
    32      6     29 1 
    33      7     30 1 
    34      8     31 1 
    35      9     32 1 
    36     12     33 1 
    37     12     34 1 
    38     13     35 1 
    39     13     36 1 
    40     14     37 1 
    41     14     38 1 
    42     17     39 1 
    43     18     43 1 
    44     20     42 1 
    45     21     40 1 
    46     22     41 1 
    47     23     44 1 
    48     24     45 1 
    49     25     46 1 
    50     27     47 1 
    51     28     48 1 
@<TRIPOS>SUBSTRUCTURE
     1 MOL1         1 MOLECULE 1 A  MOL 
# Molecule written by the XED library from Cresset
