@<TRIPOS>MOLECULE
40
    49     52      1
SMALL
USER_CHARGES
@<TRIPOS>ATOM
      1  O           4.0796  -49.9641    6.0933 O.co2     1 MOL1        0.0000
      2  C           3.2341  -49.1036    6.4140 C.2       1 MOL1        0.0000
      3  O           3.5646  -47.9824    6.8520 O.2       1 MOL1        0.0000
      4  C           1.7941  -49.4291    6.2845 C.ar      1 MOL1        0.0000
      5  C           0.0692  -50.8734    5.8701 C.ar      1 MOL1        0.0000
      6  C          -0.7526  -51.9804    5.5646 C.ar      1 MOL1        0.0000
      7  C          -2.1510  -51.8509    5.6383 C.ar      1 MOL1        0.0000
      8  C          -2.7100  -50.6161    6.0102 C.ar      1 MOL1        0.0000
      9  C          -1.8819  -49.5164    6.3113 C.ar      1 MOL1        0.0000
     10  C          -0.4706  -49.6138    6.2528 C.ar      1 MOL1        0.0000
     11  C           0.6346  -48.7012    6.4799 C.ar      1 MOL1        0.0000
     12  C           0.5503  -47.2487    6.8757 C.3       1 MOL1        0.0000
     13  C          -0.4937  -46.4439    6.0758 C.3       1 MOL1        0.0000
     14  C          -1.4675  -45.6591    6.9570 C.3       1 MOL1        0.0000
     15  O          -2.0460  -46.5551    7.8997 O.3       1 MOL1        0.0000
     16  C          -3.1695  -46.1729    8.5970 C.ar      1 MOL1        0.0000
     17  C          -3.9070  -44.9994    8.3258 C.ar      1 MOL1        0.0000
     18  C          -5.0862  -44.7046    9.0367 C.ar      1 MOL1        0.0000
     19  C          -5.5323  -45.5822   10.0518 C.ar      1 MOL1        0.0000
     20  C          -4.7880  -46.7393   10.3421 C.ar      1 MOL1        0.0000
     21  C          -3.6196  -47.0355    9.6144 C.ar      1 MOL1        0.0000
     22  N           1.4413  -50.7114    5.8907 N.pl3     1 MOL1        0.0000
     23  O          -5.8559  -43.6367    8.6703 O.3       1 MOL1        0.0000
     24  C          -7.7006  -44.6618    5.0827 C.ar      1 MOL1        0.0000
     25  C          -8.3132  -44.9852    6.3148 C.ar      1 MOL1        0.0000
     26  C          -7.7288  -44.5868    7.5197 C.ar      1 MOL1        0.0000
     27  C          -6.5230  -43.8614    7.5003 C.ar      1 MOL1        0.0000
     28  C          -5.9538  -43.4664    6.2722 C.ar      1 MOL1        0.0000
     29  C          -6.5349  -43.8779    5.0621 C.ar      1 MOL1        0.0000
     30  H          -0.3074  -52.9198    5.2755 H         1 MOL1        0.0000
     31  H          -2.7968  -52.6896    5.4151 H         1 MOL1        0.0000
     32  H          -3.7866  -50.5028    6.0695 H         1 MOL1        0.0000
     33  H          -2.3475  -48.5823    6.5781 H         1 MOL1        0.0000
     34  H           1.5075  -46.7429    6.7351 H         1 MOL1        0.0000
     35  H           0.3789  -47.1838    7.9537 H         1 MOL1        0.0000
     36  H          -1.0773  -47.0997    5.4235 H         1 MOL1        0.0000
     37  H           0.0194  -45.7661    5.3980 H         1 MOL1        0.0000
     38  H          -2.2151  -45.2222    6.2970 H         1 MOL1        0.0000
     39  H          -0.9701  -44.8474    7.4911 H         1 MOL1        0.0000
     40  H          -3.6263  -44.3407    7.5286 H         1 MOL1        0.0000
     41  H          -3.0603  -47.9329    9.8264 H         1 MOL1        0.0000
     42  H           2.1511  -51.4007    5.6695 H         1 MOL1        0.0000
     43  H          -5.1306  -47.4237   11.1122 H         1 MOL1        0.0000
     44  H          -6.4481  -45.3764   10.5887 H         1 MOL1        0.0000
     45  H          -8.1027  -45.0222    4.1484 H         1 MOL1        0.0000
     46  H          -9.2203  -45.5728    6.3260 H         1 MOL1        0.0000
     47  H          -8.1689  -44.8792    8.4685 H         1 MOL1        0.0000
     48  H          -5.0287  -42.9029    6.2496 H         1 MOL1        0.0000
     49  H          -6.0777  -43.6154    4.1209 H         1 MOL1        0.0000
@<TRIPOS>BOND
     1      1      2 1 
     2      2      3 2 
     3      2      4 1 
     4      4     11 ar
     5      4     22 ar
     6      5      6 ar
     7      5     10 ar
     8      5     22 ar
     9      6      7 ar
    10      7      8 ar
    11      8      9 ar
    12      9     10 ar
    13     10     11 ar
    14     11     12 1 
    15     12     13 1 
    16     13     14 1 
    17     14     15 1 
    18     15     16 1 
    19     16     17 ar
    20     16     21 ar
    21     17     18 ar
    22     18     19 ar
    23     18     23 1 
    24     19     20 ar
    25     20     21 ar
    26     23     27 1 
    27     24     25 ar
    28     24     29 ar
    29     25     26 ar
    30     26     27 ar
    31     27     28 ar
    32     28     29 ar
    33      6     30 1 
    34      7     31 1 
    35      8     32 1 
    36      9     33 1 
    37     12     34 1 
    38     12     35 1 
    39     13     36 1 
    40     13     37 1 
    41     14     38 1 
    42     14     39 1 
    43     17     40 1 
    44     19     44 1 
    45     20     43 1 
    46     21     41 1 
    47     22     42 1 
    48     24     45 1 
    49     25     46 1 
    50     26     47 1 
    51     28     48 1 
    52     29     49 1 
@<TRIPOS>SUBSTRUCTURE
     1 MOL1         1 MOLECULE 1 A  MOL 
# Molecule written by the XED library from Cresset
