@<TRIPOS>MOLECULE
41
    49     52      1
SMALL
USER_CHARGES
@<TRIPOS>ATOM
      1  O           3.6188  -50.0261    7.1261 O.co2     1 MOL1        0.0000
      2  C           2.9664  -49.0185    6.7704 C.2       1 MOL1        0.0000
      3  O           3.5028  -47.8881    6.7185 O.2       1 MOL1        0.0000
      4  C           1.5378  -49.1785    6.4066 C.ar      1 MOL1        0.0000
      5  C          -0.3286  -50.4688    6.1368 C.ar      1 MOL1        0.0000
      6  C          -1.2909  -51.4982    6.0796 C.ar      1 MOL1        0.0000
      7  C          -2.6052  -51.1970    5.6648 C.ar      1 MOL1        0.0000
      8  C          -2.9395  -49.8757    5.3061 C.ar      1 MOL1        0.0000
      9  C          -1.9616  -48.8533    5.3588 C.ar      1 MOL1        0.0000
     10  C          -0.6371  -49.1247    5.7873 C.ar      1 MOL1        0.0000
     11  C           0.5443  -48.3227    5.9852 C.ar      1 MOL1        0.0000
     12  C           0.6195  -46.8348    5.7937 C.3       1 MOL1        0.0000
     13  C           0.6544  -46.0387    7.1131 C.3       1 MOL1        0.0000
     14  C          -0.2727  -46.5426    8.2488 C.3       1 MOL1        0.0000
     15  O          -1.1995  -45.5833    8.7170 O.3       1 MOL1        0.0000
     16  C          -2.4514  -45.6189    8.1601 C.ar      1 MOL1        0.0000
     17  C          -3.5606  -45.8237    9.0088 C.ar      1 MOL1        0.0000
     18  C          -4.8673  -45.7979    8.4847 C.ar      1 MOL1        0.0000
     19  C          -5.0701  -45.5418    7.1156 C.ar      1 MOL1        0.0000
     20  C          -3.9629  -45.3736    6.2631 C.ar      1 MOL1        0.0000
     21  C          -2.6590  -45.4011    6.7853 C.ar      1 MOL1        0.0000
     22  N           1.0071  -50.4487    6.4916 N.pl3     1 MOL1        0.0000
     23  O          -6.3410  -45.4189    6.6163 O.3       1 MOL1        0.0000
     24  C          -7.7336  -41.4738    6.7170 C.ar      1 MOL1        0.0000
     25  C          -7.0295  -41.9323    5.5886 C.ar      1 MOL1        0.0000
     26  C          -6.5719  -43.2667    5.5411 C.ar      1 MOL1        0.0000
     27  C          -6.8370  -44.1375    6.6183 C.ar      1 MOL1        0.0000
     28  C          -7.5850  -43.6840    7.7222 C.ar      1 MOL1        0.0000
     29  C          -8.0381  -42.3539    7.7682 C.ar      1 MOL1        0.0000
     30  H          -1.0321  -52.5072    6.3509 H         1 MOL1        0.0000
     31  H          -3.3583  -51.9726    5.6232 H         1 MOL1        0.0000
     32  H          -3.9447  -49.6401    4.9833 H         1 MOL1        0.0000
     33  H          -2.2394  -47.8446    5.0911 H         1 MOL1        0.0000
     34  H          -0.2165  -46.4977    5.1782 H         1 MOL1        0.0000
     35  H           1.5009  -46.5787    5.2024 H         1 MOL1        0.0000
     36  H           0.4617  -44.9799    6.9165 H         1 MOL1        0.0000
     37  H           1.6838  -46.0610    7.4877 H         1 MOL1        0.0000
     38  H           0.3637  -46.7558    9.1142 H         1 MOL1        0.0000
     39  H          -0.7804  -47.4835    8.0268 H         1 MOL1        0.0000
     40  H          -3.4052  -45.9777   10.0674 H         1 MOL1        0.0000
     41  H          -1.8256  -45.2075    6.1295 H         1 MOL1        0.0000
     42  H           1.5851  -51.2218    6.7936 H         1 MOL1        0.0000
     43  H          -4.1090  -45.1870    5.2114 H         1 MOL1        0.0000
     44  H          -5.7131  -45.9475    9.1405 H         1 MOL1        0.0000
     45  H          -8.0407  -40.4397    6.7738 H         1 MOL1        0.0000
     46  H          -6.8347  -41.2580    4.7659 H         1 MOL1        0.0000
     47  H          -6.0100  -43.6068    4.6861 H         1 MOL1        0.0000
     48  H          -7.7915  -44.3537    8.5460 H         1 MOL1        0.0000
     49  H          -8.5855  -42.0032    8.6387 H         1 MOL1        0.0000
@<TRIPOS>BOND
     1      1      2 1 
     2      2      3 2 
     3      2      4 1 
     4      4     11 ar
     5      4     22 ar
     6      5      6 ar
     7      5     10 ar
     8      5     22 ar
     9      6      7 ar
    10      7      8 ar
    11      8      9 ar
    12      9     10 ar
    13     10     11 ar
    14     11     12 1 
    15     12     13 1 
    16     13     14 1 
    17     14     15 1 
    18     15     16 1 
    19     16     17 ar
    20     16     21 ar
    21     17     18 ar
    22     18     19 ar
    23     19     20 ar
    24     19     23 1 
    25     20     21 ar
    26     23     27 1 
    27     24     25 ar
    28     24     29 ar
    29     25     26 ar
    30     26     27 ar
    31     27     28 ar
    32     28     29 ar
    33      6     30 1 
    34      7     31 1 
    35      8     32 1 
    36      9     33 1 
    37     12     34 1 
    38     12     35 1 
    39     13     36 1 
    40     13     37 1 
    41     14     38 1 
    42     14     39 1 
    43     17     40 1 
    44     18     44 1 
    45     20     43 1 
    46     21     41 1 
    47     22     42 1 
    48     24     45 1 
    49     25     46 1 
    50     26     47 1 
    51     28     48 1 
    52     29     49 1 
@<TRIPOS>SUBSTRUCTURE
     1 MOL1         1 MOLECULE 1 A  MOL 
# Molecule written by the XED library from Cresset
