@<TRIPOS>MOLECULE
42
    44     47      1
SMALL
USER_CHARGES
@<TRIPOS>ATOM
      1  O           3.6010  -50.1309    7.2173 O.co2     1 MOL1        0.0000
      2  C           2.9795  -49.0944    6.8829 C.2       1 MOL1        0.0000
      3  O           3.5582  -47.9830    6.8122 O.2       1 MOL1        0.0000
      4  C           1.5366  -49.2034    6.5537 C.ar      1 MOL1        0.0000
      5  C          -0.3472  -50.4577    6.2991 C.ar      1 MOL1        0.0000
      6  C          -1.3179  -51.4749    6.2331 C.ar      1 MOL1        0.0000
      7  C          -2.6289  -51.1468    5.8278 C.ar      1 MOL1        0.0000
      8  C          -2.9455  -49.8148    5.4839 C.ar      1 MOL1        0.0000
      9  C          -1.9618  -48.8114    5.5555 C.ar      1 MOL1        0.0000
     10  C          -0.6358  -49.1065    5.9640 C.ar      1 MOL1        0.0000
     11  C           0.5554  -48.3244    6.1538 C.ar      1 MOL1        0.0000
     12  C           0.6833  -46.8447    5.9557 C.3       1 MOL1        0.0000
     13  C           0.6911  -46.0461    7.2731 C.3       1 MOL1        0.0000
     14  C          -0.5530  -46.2446    8.1393 C.3       1 MOL1        0.0000
     15  O          -1.6886  -45.7642    7.4384 O.3       1 MOL1        0.0000
     16  C          -2.9365  -45.9351    8.0039 C.ar      1 MOL1        0.0000
     17  C          -5.5641  -46.2439    9.0369 C.ar      1 MOL1        0.0000
     18  C          -4.4526  -46.6108    9.8135 C.ar      1 MOL1        0.0000
     19  C          -3.1512  -46.4560    9.3053 C.ar      1 MOL1        0.0000
     20  C          -5.3751  -45.7201    7.7432 C.ar      1 MOL1        0.0000
     21  C          -4.0606  -45.5636    7.2263 C.ar      1 MOL1        0.0000
     22  C          -3.8918  -45.0359    5.9226 C.ar      1 MOL1        0.0000
     23  C          -5.0075  -44.6755    5.1465 C.ar      1 MOL1        0.0000
     24  C          -6.3050  -44.8355    5.6606 C.ar      1 MOL1        0.0000
     25  C          -6.4926  -45.3504    6.9558 C.ar      1 MOL1        0.0000
     26  N           0.9870  -50.4703    6.6481 N.pl3     1 MOL1        0.0000
     27  H          -1.0725  -52.4891    6.4965 H         1 MOL1        0.0000
     28  H          -3.4006  -51.9114    5.7850 H         1 MOL1        0.0000
     29  H          -3.9567  -49.5554    5.1726 H         1 MOL1        0.0000
     30  H          -2.2180  -47.7978    5.2884 H         1 MOL1        0.0000
     31  H          -0.1373  -46.4896    5.3358 H         1 MOL1        0.0000
     32  H           1.5901  -46.6136    5.3924 H         1 MOL1        0.0000
     33  H           0.8003  -44.9837    7.0497 H         1 MOL1        0.0000
     34  H           1.5657  -46.3279    7.8552 H         1 MOL1        0.0000
     35  H          -0.4371  -45.6845    9.0679 H         1 MOL1        0.0000
     36  H          -0.6725  -47.3005    8.3938 H         1 MOL1        0.0000
     37  H          -2.3433  -46.7548    9.9541 H         1 MOL1        0.0000
     38  H          -2.9091  -44.8987    5.5003 H         1 MOL1        0.0000
     39  H          -4.8459  -44.2745    4.1548 H         1 MOL1        0.0000
     40  H          -7.1620  -44.5617    5.0630 H         1 MOL1        0.0000
     41  H          -7.4912  -45.4674    7.3450 H         1 MOL1        0.0000
     42  H          -4.5861  -47.0164   10.8082 H         1 MOL1        0.0000
     43  H          -6.5536  -46.3721    9.4430 H         1 MOL1        0.0000
     44  H           1.5565  -51.2517    6.9442 H         1 MOL1        0.0000
@<TRIPOS>BOND
     1      1      2 1 
     2      2      3 2 
     3      2      4 1 
     4      4     11 ar
     5      4     26 ar
     6      5      6 ar
     7      5     10 ar
     8      5     26 ar
     9      6      7 ar
    10      7      8 ar
    11      8      9 ar
    12      9     10 ar
    13     10     11 ar
    14     11     12 1 
    15     12     13 1 
    16     13     14 1 
    17     14     15 1 
    18     15     16 1 
    19     16     19 ar
    20     16     21 ar
    21     17     18 ar
    22     17     20 ar
    23     18     19 ar
    24     20     21 ar
    25     20     25 ar
    26     21     22 ar
    27     22     23 ar
    28     23     24 ar
    29     24     25 ar
    30      6     27 1 
    31      7     28 1 
    32      8     29 1 
    33      9     30 1 
    34     12     31 1 
    35     12     32 1 
    36     13     33 1 
    37     13     34 1 
    38     14     35 1 
    39     14     36 1 
    40     17     43 1 
    41     18     42 1 
    42     19     37 1 
    43     22     38 1 
    44     23     39 1 
    45     24     40 1 
    46     25     41 1 
    47     26     44 1 
@<TRIPOS>SUBSTRUCTURE
     1 MOL1         1 MOLECULE 1 A  MOL 
# Molecule written by the XED library from Cresset
