@<TRIPOS>MOLECULE
43
    44     47      1
SMALL
USER_CHARGES
@<TRIPOS>ATOM
      1  O           3.5643  -47.8843    6.3334 O.co2     1 MOL1        0.0000
      2  C           2.9990  -48.9049    6.7868 C.2       1 MOL1        0.0000
      3  O           3.5887  -49.7095    7.5467 O.2       1 MOL1        0.0000
      4  C           1.5874  -49.1583    6.4235 C.ar      1 MOL1        0.0000
      5  C          -0.3136  -50.4258    6.4859 C.ar      1 MOL1        0.0000
      6  C          -1.3036  -51.4031    6.6994 C.ar      1 MOL1        0.0000
      7  C          -2.5845  -51.2164    6.1482 C.ar      1 MOL1        0.0000
      8  C          -2.8632  -50.0626    5.3949 C.ar      1 MOL1        0.0000
      9  C          -1.8627  -49.0917    5.1852 C.ar      1 MOL1        0.0000
     10  C          -0.5602  -49.2479    5.7208 C.ar      1 MOL1        0.0000
     11  C           0.6473  -48.4594    5.6954 C.ar      1 MOL1        0.0000
     12  C           0.8265  -47.1229    5.0263 C.3       1 MOL1        0.0000
     13  C           0.8821  -45.9477    6.0225 C.3       1 MOL1        0.0000
     14  C          -0.3512  -45.8393    6.9293 C.3       1 MOL1        0.0000
     15  O          -1.4585  -45.3868    6.1598 O.3       1 MOL1        0.0000
     16  C          -2.6734  -45.2518    6.7942 C.ar      1 MOL1        0.0000
     17  C          -4.9576  -44.3709    6.6682 C.ar      1 MOL1        0.0000
     18  C          -3.6845  -44.5617    6.0974 C.ar      1 MOL1        0.0000
     19  C          -2.9615  -45.7676    8.0827 C.ar      1 MOL1        0.0000
     20  C          -4.2421  -45.6033    8.6496 C.ar      1 MOL1        0.0000
     21  C          -5.2428  -44.8900    7.9458 C.ar      1 MOL1        0.0000
     22  C          -6.5177  -44.7121    8.5223 C.ar      1 MOL1        0.0000
     23  C          -6.8021  -45.2571    9.7910 C.ar      1 MOL1        0.0000
     24  C          -5.8102  -45.9817   10.4853 C.ar      1 MOL1        0.0000
     25  C          -4.5321  -46.1533    9.9158 C.ar      1 MOL1        0.0000
     26  N           1.0036  -50.3231    6.8929 N.pl3     1 MOL1        0.0000
     27  H          -1.0808  -52.2831    7.2830 H         1 MOL1        0.0000
     28  H          -3.3514  -51.9594    6.3077 H         1 MOL1        0.0000
     29  H          -3.8475  -49.9191    4.9764 H         1 MOL1        0.0000
     30  H          -2.0911  -48.2065    4.6076 H         1 MOL1        0.0000
     31  H           0.0168  -46.9558    4.3169 H         1 MOL1        0.0000
     32  H           1.7408  -47.1287    4.4309 H         1 MOL1        0.0000
     33  H           1.0222  -45.0114    5.4834 H         1 MOL1        0.0000
     34  H           1.7641  -46.0601    6.6515 H         1 MOL1        0.0000
     35  H          -0.1558  -45.1259    7.7294 H         1 MOL1        0.0000
     36  H          -0.5515  -46.8060    7.3926 H         1 MOL1        0.0000
     37  H          -3.4773  -44.1655    5.1146 H         1 MOL1        0.0000
     38  H          -5.7169  -43.8324    6.1167 H         1 MOL1        0.0000
     39  H          -7.2854  -44.1649    7.9948 H         1 MOL1        0.0000
     40  H          -7.7781  -45.1176   10.2340 H         1 MOL1        0.0000
     41  H          -6.0317  -46.4019   11.4577 H         1 MOL1        0.0000
     42  H          -3.7793  -46.7042   10.4587 H         1 MOL1        0.0000
     43  H          -2.2210  -46.3075    8.6524 H         1 MOL1        0.0000
     44  H           1.5367  -50.9666    7.4620 H         1 MOL1        0.0000
@<TRIPOS>BOND
     1      1      2 1 
     2      2      3 2 
     3      2      4 1 
     4      4     11 ar
     5      4     26 ar
     6      5      6 ar
     7      5     10 ar
     8      5     26 ar
     9      6      7 ar
    10      7      8 ar
    11      8      9 ar
    12      9     10 ar
    13     10     11 ar
    14     11     12 1 
    15     12     13 1 
    16     13     14 1 
    17     14     15 1 
    18     15     16 1 
    19     16     18 ar
    20     16     19 ar
    21     17     18 ar
    22     17     21 ar
    23     19     20 ar
    24     20     21 ar
    25     20     25 ar
    26     21     22 ar
    27     22     23 ar
    28     23     24 ar
    29     24     25 ar
    30      6     27 1 
    31      7     28 1 
    32      8     29 1 
    33      9     30 1 
    34     12     31 1 
    35     12     32 1 
    36     13     33 1 
    37     13     34 1 
    38     14     35 1 
    39     14     36 1 
    40     17     38 1 
    41     18     37 1 
    42     19     43 1 
    43     22     39 1 
    44     23     40 1 
    45     24     41 1 
    46     25     42 1 
    47     26     44 1 
@<TRIPOS>SUBSTRUCTURE
     1 MOL1         1 MOLECULE 1 A  MOL 
# Molecule written by the XED library from Cresset
