@<TRIPOS>MOLECULE
44
    44     47      1
SMALL
USER_CHARGES
@<TRIPOS>ATOM
      1  O           3.5638  -47.8398    6.3294 O.co2     1 MOL1        0.0000
      2  C           3.0055  -48.8795    6.7362 C.2       1 MOL1        0.0000
      3  O           3.6001  -49.7033    7.4706 O.2       1 MOL1        0.0000
      4  C           1.6002  -49.1348    6.3550 C.ar      1 MOL1        0.0000
      5  C          -0.2707  -50.4496    6.3395 C.ar      1 MOL1        0.0000
      6  C          -1.2446  -51.4534    6.4978 C.ar      1 MOL1        0.0000
      7  C          -2.5290  -51.2642    5.9573 C.ar      1 MOL1        0.0000
      8  C          -2.8264  -50.0751    5.2634 C.ar      1 MOL1        0.0000
      9  C          -1.8457  -49.0732    5.1109 C.ar      1 MOL1        0.0000
     10  C          -0.5465  -49.2371    5.6460 C.ar      1 MOL1        0.0000
     11  C           0.6398  -48.4122    5.6803 C.ar      1 MOL1        0.0000
     12  C           0.7658  -47.0204    5.1109 C.3       1 MOL1        0.0000
     13  C           0.8382  -45.9174    6.1894 C.3       1 MOL1        0.0000
     14  C          -0.2514  -46.0044    7.2636 C.3       1 MOL1        0.0000
     15  O          -1.5116  -45.6953    6.6849 O.3       1 MOL1        0.0000
     16  C          -2.6160  -45.6893    7.5101 C.ar      1 MOL1        0.0000
     17  C          -4.9357  -45.6105    9.1489 C.ar      1 MOL1        0.0000
     18  C          -3.7951  -46.3194    9.5617 C.ar      1 MOL1        0.0000
     19  C          -2.6431  -46.3574    8.7572 C.ar      1 MOL1        0.0000
     20  C          -4.9328  -44.9377    7.9019 C.ar      1 MOL1        0.0000
     21  C          -3.7720  -44.9848    7.0812 C.ar      1 MOL1        0.0000
     22  C          -3.7720  -44.3169    5.8386 C.ar      1 MOL1        0.0000
     23  C          -4.9088  -43.6148    5.4042 C.ar      1 MOL1        0.0000
     24  C          -6.0601  -43.5677    6.2105 C.ar      1 MOL1        0.0000
     25  C          -6.0722  -44.2246    7.4561 C.ar      1 MOL1        0.0000
     26  CL         -6.3143  -45.5879   10.1970 Cl        1 MOL1        0.0000
     27  N           1.0415  -50.3407    6.7514 N.pl3     1 MOL1        0.0000
     28  H          -1.0077  -52.3586    7.0271 H         1 MOL1        0.0000
     29  H          -3.2862  -52.0252    6.0738 H         1 MOL1        0.0000
     30  H          -3.8126  -49.9204    4.8501 H         1 MOL1        0.0000
     31  H          -2.0817  -48.1638    4.5782 H         1 MOL1        0.0000
     32  H          -0.0880  -46.8183    4.4620 H         1 MOL1        0.0000
     33  H           1.6452  -46.9604    4.4630 H         1 MOL1        0.0000
     34  H           0.8127  -44.9396    5.7098 H         1 MOL1        0.0000
     35  H           1.8058  -45.9782    6.6859 H         1 MOL1        0.0000
     36  H          -0.0397  -45.2808    8.0530 H         1 MOL1        0.0000
     37  H          -0.2389  -46.9911    7.7216 H         1 MOL1        0.0000
     38  H          -1.8003  -46.9189    9.1152 H         1 MOL1        0.0000
     39  H          -2.9025  -44.3383    5.2009 H         1 MOL1        0.0000
     40  H          -4.9003  -43.1136    4.4481 H         1 MOL1        0.0000
     41  H          -6.9301  -43.0279    5.8753 H         1 MOL1        0.0000
     42  H          -6.9613  -44.1701    8.0625 H         1 MOL1        0.0000
     43  H          -3.7969  -46.8284   10.5131 H         1 MOL1        0.0000
     44  H           1.5788  -51.0058    7.2849 H         1 MOL1        0.0000
@<TRIPOS>BOND
     1      1      2 1 
     2      2      3 2 
     3      2      4 1 
     4      4     11 ar
     5      4     27 ar
     6      5      6 ar
     7      5     10 ar
     8      5     27 ar
     9      6      7 ar
    10      7      8 ar
    11      8      9 ar
    12      9     10 ar
    13     10     11 ar
    14     11     12 1 
    15     12     13 1 
    16     13     14 1 
    17     14     15 1 
    18     15     16 1 
    19     16     19 ar
    20     16     21 ar
    21     17     18 ar
    22     17     20 ar
    23     17     26 1 
    24     18     19 ar
    25     20     21 ar
    26     20     25 ar
    27     21     22 ar
    28     22     23 ar
    29     23     24 ar
    30     24     25 ar
    31      6     28 1 
    32      7     29 1 
    33      8     30 1 
    34      9     31 1 
    35     12     32 1 
    36     12     33 1 
    37     13     34 1 
    38     13     35 1 
    39     14     36 1 
    40     14     37 1 
    41     18     43 1 
    42     19     38 1 
    43     22     39 1 
    44     23     40 1 
    45     24     41 1 
    46     25     42 1 
    47     27     44 1 
@<TRIPOS>SUBSTRUCTURE
     1 MOL1         1 MOLECULE 1 A  MOL 
# Molecule written by the XED library from Cresset
