@<TRIPOS>MOLECULE
45
    48     51      1
SMALL
USER_CHARGES
@<TRIPOS>ATOM
      1  O           3.4855  -49.9426    7.0276 O.co2     1 MOL1        0.0000
      2  C           2.8121  -48.9262    6.7501 C.2       1 MOL1        0.0000
      3  O           3.3387  -47.7912    6.7250 O.2       1 MOL1        0.0000
      4  C           1.3656  -49.0984    6.4616 C.ar      1 MOL1        0.0000
      5  C          -0.4570  -50.4272    6.2251 C.ar      1 MOL1        0.0000
      6  C          -1.3771  -51.4933    6.1604 C.ar      1 MOL1        0.0000
      7  C          -2.7279  -51.2247    5.8404 C.ar      1 MOL1        0.0000
      8  C          -3.1252  -49.8960    5.5731 C.ar      1 MOL1        0.0000
      9  C          -2.1902  -48.8426    5.6378 C.ar      1 MOL1        0.0000
     10  C          -0.8351  -49.0777    5.9738 C.ar      1 MOL1        0.0000
     11  C           0.3360  -48.2451    6.1279 C.ar      1 MOL1        0.0000
     12  C           0.4043  -46.7612    5.9387 C.3       1 MOL1        0.0000
     13  C           0.3098  -45.9594    7.2517 C.3       1 MOL1        0.0000
     14  C          -1.0292  -46.0969    7.9995 C.3       1 MOL1        0.0000
     15  O          -2.0793  -45.5604    7.1983 O.3       1 MOL1        0.0000
     16  C          -3.3471  -45.4671    7.7380 C.ar      1 MOL1        0.0000
     17  C          -5.9796  -45.1890    8.7400 C.ar      1 MOL1        0.0000
     18  C          -4.9970  -45.8216    9.5182 C.ar      1 MOL1        0.0000
     19  C          -3.6869  -45.9651    9.0246 C.ar      1 MOL1        0.0000
     20  C          -5.6697  -44.7035    7.4607 C.ar      1 MOL1        0.0000
     21  C          -4.3510  -44.8400    6.9519 C.ar      1 MOL1        0.0000
     22  C          -4.0014  -44.3412    5.5513 C.3       1 MOL1        0.0000
     23  C          -5.0175  -43.3336    4.9872 C.3       1 MOL1        0.0000
     24  C          -6.4494  -43.8370    5.1794 C.3       1 MOL1        0.0000
     25  C          -6.7716  -44.0165    6.6646 C.3       1 MOL1        0.0000
     26  N           0.8791  -50.3882    6.5090 N.pl3     1 MOL1        0.0000
     27  H          -1.0554  -52.5071    6.3622 H         1 MOL1        0.0000
     28  H          -3.4470  -52.0325    5.7976 H         1 MOL1        0.0000
     29  H          -4.1577  -49.6923    5.3194 H         1 MOL1        0.0000
     30  H          -2.5225  -47.8288    5.4348 H         1 MOL1        0.0000
     31  H          -0.3771  -46.4300    5.2566 H         1 MOL1        0.0000
     32  H           1.3389  -46.5012    5.4412 H         1 MOL1        0.0000
     33  H           0.4800  -44.9035    7.0314 H         1 MOL1        0.0000
     34  H           1.1237  -46.2551    7.9089 H         1 MOL1        0.0000
     35  H          -0.9544  -45.5410    8.9393 H         1 MOL1        0.0000
     36  H          -1.2201  -47.1415    8.2503 H         1 MOL1        0.0000
     37  H          -2.9571  -46.4543    9.6540 H         1 MOL1        0.0000
     38  H          -5.2476  -46.1918   10.5005 H         1 MOL1        0.0000
     39  H          -6.9807  -45.0767    9.1327 H         1 MOL1        0.0000
     40  H          -3.9511  -45.2097    4.8939 H         1 MOL1        0.0000
     41  H          -3.0095  -43.8903    5.5414 H         1 MOL1        0.0000
     42  H          -4.8323  -43.1458    3.9293 H         1 MOL1        0.0000
     43  H          -4.9028  -42.3788    5.4995 H         1 MOL1        0.0000
     44  H          -6.5591  -44.7912    4.6611 H         1 MOL1        0.0000
     45  H          -7.1629  -43.1518    4.7184 H         1 MOL1        0.0000
     46  H          -6.9448  -43.0401    7.1156 H         1 MOL1        0.0000
     47  H          -7.7010  -44.5764    6.7714 H         1 MOL1        0.0000
     48  H           1.5076  -51.1532    6.7164 H         1 MOL1        0.0000
@<TRIPOS>BOND
     1      1      2 1 
     2      2      3 2 
     3      2      4 1 
     4      4     11 ar
     5      4     26 ar
     6      5      6 ar
     7      5     10 ar
     8      5     26 ar
     9      6      7 ar
    10      7      8 ar
    11      8      9 ar
    12      9     10 ar
    13     10     11 ar
    14     11     12 1 
    15     12     13 1 
    16     13     14 1 
    17     14     15 1 
    18     15     16 1 
    19     16     19 ar
    20     16     21 ar
    21     17     18 ar
    22     17     20 ar
    23     18     19 ar
    24     20     21 ar
    25     20     25 1 
    26     21     22 1 
    27     22     23 1 
    28     23     24 1 
    29     24     25 1 
    30      6     27 1 
    31      7     28 1 
    32      8     29 1 
    33      9     30 1 
    34     12     31 1 
    35     12     32 1 
    36     13     33 1 
    37     13     34 1 
    38     14     35 1 
    39     14     36 1 
    40     17     39 1 
    41     18     38 1 
    42     19     37 1 
    43     22     40 1 
    44     22     41 1 
    45     23     42 1 
    46     23     43 1 
    47     24     44 1 
    48     24     45 1 
    49     25     46 1 
    50     25     47 1 
    51     26     48 1 
@<TRIPOS>SUBSTRUCTURE
     1 MOL1         1 MOLECULE 1 A  MOL 
# Molecule written by the XED library from Cresset
