@<TRIPOS>MOLECULE
46
    45     48      1
SMALL
USER_CHARGES
@<TRIPOS>ATOM
      1  O           3.5634  -47.8222    6.3169 O.co2     1 MOL1        0.0000
      2  C           3.0096  -48.8325    6.8076 C.2       1 MOL1        0.0000
      3  O           3.6259  -49.6047    7.5794 O.2       1 MOL1        0.0000
      4  C           1.5978  -49.1187    6.4846 C.ar      1 MOL1        0.0000
      5  C          -0.2687  -50.4180    6.6086 C.ar      1 MOL1        0.0000
      6  C          -1.2477  -51.4049    6.8705 C.ar      1 MOL1        0.0000
      7  C          -2.5242  -51.2927    6.2695 C.ar      1 MOL1        0.0000
      8  C          -2.8029  -50.2046    5.4177 C.ar      1 MOL1        0.0000
      9  C          -1.8160  -49.2240    5.1702 C.ar      1 MOL1        0.0000
     10  C          -0.5328  -49.3025    5.7596 C.ar      1 MOL1        0.0000
     11  C           0.6485  -48.4818    5.7196 C.ar      1 MOL1        0.0000
     12  C           0.7914  -47.1830    4.9813 C.3       1 MOL1        0.0000
     13  C           0.8856  -45.9530    5.9079 C.3       1 MOL1        0.0000
     14  C          -0.3043  -45.7921    6.8650 C.3       1 MOL1        0.0000
     15  O          -1.4475  -45.4189    6.1063 O.3       1 MOL1        0.0000
     16  C          -2.6442  -45.2630    6.7712 C.ar      1 MOL1        0.0000
     17  C          -4.8922  -44.2571    6.6999 C.ar      1 MOL1        0.0000
     18  C          -3.6327  -44.4906    6.1102 C.ar      1 MOL1        0.0000
     19  C          -2.9379  -45.8450    8.0360 C.ar      1 MOL1        0.0000
     20  N           1.0287  -50.2522    7.0341 N.pl3     1 MOL1        0.0000
     21  C          -6.2177  -45.7257    9.9160 C.3       1 MOL1        0.0000
     22  C          -4.7395  -46.1893    9.8810 C.3       1 MOL1        0.0000
     23  C          -4.2087  -45.6259    8.5912 C.ar      1 MOL1        0.0000
     24  C          -5.1536  -44.8350    7.9542 C.ar      1 MOL1        0.0000
     25  C          -6.4175  -44.7160    8.7624 C.3       1 MOL1        0.0000
     26  H          -1.0201  -52.2377    7.5251 H         1 MOL1        0.0000
     27  H          -3.2785  -52.0456    6.4598 H         1 MOL1        0.0000
     28  H          -3.7773  -50.1193    4.9545 H         1 MOL1        0.0000
     29  H          -2.0556  -48.3850    4.5239 H         1 MOL1        0.0000
     30  H          -0.0599  -47.0510    4.3183 H         1 MOL1        0.0000
     31  H           1.6673  -47.2161    4.3353 H         1 MOL1        0.0000
     32  H           0.9959  -45.0491    5.3038 H         1 MOL1        0.0000
     33  H           1.7930  -46.0181    6.5046 H         1 MOL1        0.0000
     34  H          -0.0852  -45.0058    7.5899 H         1 MOL1        0.0000
     35  H          -0.4512  -46.7215    7.4182 H         1 MOL1        0.0000
     36  H          -3.4149  -44.0650    5.1406 H         1 MOL1        0.0000
     37  H          -5.6352  -43.6555    6.1979 H         1 MOL1        0.0000
     38  H          -2.2387  -46.4637    8.5728 H         1 MOL1        0.0000
     39  H          -6.5036  -43.6968    9.1386 H         1 MOL1        0.0000
     40  H          -7.2948  -44.9463    8.1570 H         1 MOL1        0.0000
     41  H          -6.5029  -45.3113   10.8847 H         1 MOL1        0.0000
     42  H          -6.8566  -46.5933    9.7373 H         1 MOL1        0.0000
     43  H          -4.6544  -47.2763    9.8998 H         1 MOL1        0.0000
     44  H          -4.1716  -45.7891   10.7160 H         1 MOL1        0.0000
     45  H           1.5629  -50.8425    7.6515 H         1 MOL1        0.0000
@<TRIPOS>BOND
     1      1      2 1 
     2      2      3 2 
     3      2      4 1 
     4      4     11 ar
     5      4     20 ar
     6      5      6 ar
     7      5     10 ar
     8      5     20 ar
     9      6      7 ar
    10      7      8 ar
    11      8      9 ar
    12      9     10 ar
    13     10     11 ar
    14     11     12 1 
    15     12     13 1 
    16     13     14 1 
    17     14     15 1 
    18     15     16 1 
    19     16     18 ar
    20     16     19 ar
    21     17     18 ar
    22     17     24 ar
    23     19     23 ar
    24     21     22 1 
    25     21     25 1 
    26     22     23 1 
    27     23     24 ar
    28     24     25 1 
    29      6     26 1 
    30      7     27 1 
    31      8     28 1 
    32      9     29 1 
    33     12     30 1 
    34     12     31 1 
    35     13     32 1 
    36     13     33 1 
    37     14     34 1 
    38     14     35 1 
    39     17     37 1 
    40     18     36 1 
    41     19     38 1 
    42     20     45 1 
    43     21     41 1 
    44     21     42 1 
    45     22     43 1 
    46     22     44 1 
    47     25     39 1 
    48     25     40 1 
@<TRIPOS>SUBSTRUCTURE
     1 MOL1         1 MOLECULE 1 A  MOL 
# Molecule written by the XED library from Cresset
