@<TRIPOS>MOLECULE
47
    43     46      1
SMALL
USER_CHARGES
@<TRIPOS>ATOM
      1  O           3.8686  -50.1190    7.0932 O.co2     1 MOL1        0.0000
      2  C           3.1190  -49.1589    6.7946 C.2       1 MOL1        0.0000
      3  O           3.5527  -47.9843    6.7208 O.2       1 MOL1        0.0000
      4  C           1.6856  -49.4320    6.5286 C.ar      1 MOL1        0.0000
      5  C          -0.0809  -50.8763    6.3515 C.ar      1 MOL1        0.0000
      6  C          -0.9511  -51.9836    6.3183 C.ar      1 MOL1        0.0000
      7  C          -2.3175  -51.7852    6.0387 C.ar      1 MOL1        0.0000
      8  C          -2.8023  -50.4802    5.8114 C.ar      1 MOL1        0.0000
      9  C          -1.9249  -49.3776    5.8612 C.ar      1 MOL1        0.0000
     10  C          -0.5419  -49.5476    6.1269 C.ar      1 MOL1        0.0000
     11  C           0.5818  -48.6544    6.2494 C.ar      1 MOL1        0.0000
     12  C           0.5070  -47.1632    6.1421 C.3       1 MOL1        0.0000
     13  C           0.1148  -46.5415    7.4889 C.3       1 MOL1        0.0000
     14  C          -0.4072  -45.1038    7.3461 C.3       1 MOL1        0.0000
     15  O          -1.5468  -45.0525    6.4949 O.3       1 MOL1        0.0000
     16  C          -2.8067  -45.2692    7.0109 C.ar      1 MOL1        0.0000
     17  C          -5.2211  -45.1826    6.5885 C.ar      1 MOL1        0.0000
     18  C          -3.8922  -45.0084    6.1504 C.ar      1 MOL1        0.0000
     19  C          -3.0729  -45.7272    8.3225 C.ar      1 MOL1        0.0000
     20  C          -4.4026  -45.9169    8.7511 C.ar      1 MOL1        0.0000
     21  C          -5.5002  -45.6402    7.8903 C.ar      1 MOL1        0.0000
     22  N          -6.7807  -45.8063    8.2927 N.ar      1 MOL1        0.0000
     23  C          -7.0196  -46.2339    9.5524 C.ar      1 MOL1        0.0000
     24  C          -5.9967  -46.5463   10.4671 C.ar      1 MOL1        0.0000
     25  C          -4.6620  -46.3937   10.0496 C.ar      1 MOL1        0.0000
     26  N           1.2731  -50.7546    6.5922 N.pl3     1 MOL1        0.0000
     27  H          -0.5745  -52.9772    6.4996 H         1 MOL1        0.0000
     28  H          -2.9954  -52.6270    6.0061 H         1 MOL1        0.0000
     29  H          -3.8516  -50.3275    5.5997 H         1 MOL1        0.0000
     30  H          -2.3147  -48.3846    5.6922 H         1 MOL1        0.0000
     31  H          -0.2249  -46.8991    5.3792 H         1 MOL1        0.0000
     32  H           1.4539  -46.7474    5.7898 H         1 MOL1        0.0000
     33  H           0.9728  -46.5654    8.1598 H         1 MOL1        0.0000
     34  H          -0.6489  -47.1566    7.9613 H         1 MOL1        0.0000
     35  H           0.3680  -44.4929    6.8836 H         1 MOL1        0.0000
     36  H          -0.6002  -44.6497    8.3160 H         1 MOL1        0.0000
     37  H          -3.7003  -44.6602    5.1441 H         1 MOL1        0.0000
     38  H          -6.0370  -44.9748    5.9117 H         1 MOL1        0.0000
     39  H          -8.0581  -46.3378    9.8379 H         1 MOL1        0.0000
     40  H          -6.2280  -46.8986   11.4632 H         1 MOL1        0.0000
     41  H          -3.8505  -46.6326   10.7173 H         1 MOL1        0.0000
     42  H          -2.2731  -45.9438    9.0132 H         1 MOL1        0.0000
     43  H           1.9414  -51.4821    6.8006 H         1 MOL1        0.0000
@<TRIPOS>BOND
     1      1      2 1 
     2      2      3 2 
     3      2      4 1 
     4      4     11 ar
     5      4     26 ar
     6      5      6 ar
     7      5     10 ar
     8      5     26 ar
     9      6      7 ar
    10      7      8 ar
    11      8      9 ar
    12      9     10 ar
    13     10     11 ar
    14     11     12 1 
    15     12     13 1 
    16     13     14 1 
    17     14     15 1 
    18     15     16 1 
    19     16     18 ar
    20     16     19 ar
    21     17     18 ar
    22     17     21 ar
    23     19     20 ar
    24     20     21 ar
    25     20     25 ar
    26     21     22 ar
    27     22     23 ar
    28     23     24 ar
    29     24     25 ar
    30      6     27 1 
    31      7     28 1 
    32      8     29 1 
    33      9     30 1 
    34     12     31 1 
    35     12     32 1 
    36     13     33 1 
    37     13     34 1 
    38     14     35 1 
    39     14     36 1 
    40     17     38 1 
    41     18     37 1 
    42     19     42 1 
    43     23     39 1 
    44     24     40 1 
    45     25     41 1 
    46     26     43 1 
@<TRIPOS>SUBSTRUCTURE
     1 MOL1         1 MOLECULE 1 A  MOL 
# Molecule written by the XED library from Cresset
