@<TRIPOS>MOLECULE
48
    42     45      1
SMALL
USER_CHARGES
@<TRIPOS>ATOM
      1  O           3.5962  -50.2382    7.2860 O.co2     1 MOL1        0.0000
      2  C           2.9915  -49.1832    6.9785 C.2       1 MOL1        0.0000
      3  O           3.5468  -48.0563    6.9856 O.2       1 MOL1        0.0000
      4  C           1.5667  -49.2814    6.6034 C.ar      1 MOL1        0.0000
      5  C          -0.3493  -50.4961    6.2933 C.ar      1 MOL1        0.0000
      6  C          -1.3483  -51.4866    6.2008 C.ar      1 MOL1        0.0000
      7  C          -2.6508  -51.1171    5.7985 C.ar      1 MOL1        0.0000
      8  C          -2.9320  -49.7715    5.4886 C.ar      1 MOL1        0.0000
      9  C          -1.9224  -48.7928    5.5781 C.ar      1 MOL1        0.0000
     10  C          -0.6057  -49.1301    5.9783 C.ar      1 MOL1        0.0000
     11  C           0.6128  -48.3833    6.1734 C.ar      1 MOL1        0.0000
     12  C           0.8068  -46.9172    5.9622 C.3       1 MOL1        0.0000
     13  C           0.7034  -46.1229    7.2813 C.3       1 MOL1        0.0000
     14  C          -0.7224  -46.0877    7.8568 C.3       1 MOL1        0.0000
     15  O          -1.5391  -45.3745    6.9378 O.3       1 MOL1        0.0000
     16  C          -2.8810  -45.1822    7.1989 C.ar      1 MOL1        0.0000
     17  C          -5.6349  -44.5517    7.4221 C.ar      1 MOL1        0.0000
     18  C          -4.8882  -44.0528    6.3462 C.ar      1 MOL1        0.0000
     19  C          -3.5272  -44.3675    6.2431 C.ar      1 MOL1        0.0000
     20  N           0.9807  -50.5349    6.6696 N.pl3     1 MOL1        0.0000
     21  C          -4.5301  -46.7432   10.1164 C.ar      1 MOL1        0.0000
     22  N          -5.5194  -46.0063    9.4887 N.pl3     1 MOL1        0.0000
     23  C          -5.0107  -45.3807    8.3736 C.ar      1 MOL1        0.0000
     24  C          -3.6231  -45.7297    8.3012 C.ar      1 MOL1        0.0000
     25  C          -3.3547  -46.5895    9.4315 C.ar      1 MOL1        0.0000
     26  H          -1.1221  -52.5127    6.4406 H         1 MOL1        0.0000
     27  H          -3.4286  -51.8679    5.7409 H         1 MOL1        0.0000
     28  H          -3.9393  -49.4941    5.1917 H         1 MOL1        0.0000
     29  H          -2.1655  -47.7639    5.3407 H         1 MOL1        0.0000
     30  H           0.0812  -46.5361    5.2444 H         1 MOL1        0.0000
     31  H           1.7755  -46.7461    5.5008 H         1 MOL1        0.0000
     32  H           1.0481  -45.1065    7.1031 H         1 MOL1        0.0000
     33  H           1.3929  -46.5497    8.0104 H         1 MOL1        0.0000
     34  H          -0.7254  -45.5871    8.8270 H         1 MOL1        0.0000
     35  H          -1.0854  -47.1044    7.9921 H         1 MOL1        0.0000
     36  H          -2.9494  -43.9743    5.4116 H         1 MOL1        0.0000
     37  H          -5.3617  -43.4242    5.5988 H         1 MOL1        0.0000
     38  H          -6.6821  -44.3169    7.5187 H         1 MOL1        0.0000
     39  H           1.5294  -51.3275    6.9752 H         1 MOL1        0.0000
     40  H          -6.4801  -45.9639    9.8176 H         1 MOL1        0.0000
     41  H          -2.4128  -47.0461    9.6996 H         1 MOL1        0.0000
     42  H          -4.7507  -47.3116   11.0075 H         1 MOL1        0.0000
@<TRIPOS>BOND
     1      1      2 1 
     2      2      3 2 
     3      2      4 1 
     4      4     11 ar
     5      4     20 ar
     6      5      6 ar
     7      5     10 ar
     8      5     20 ar
     9      6      7 ar
    10      7      8 ar
    11      8      9 ar
    12      9     10 ar
    13     10     11 ar
    14     11     12 1 
    15     12     13 1 
    16     13     14 1 
    17     14     15 1 
    18     15     16 1 
    19     16     19 ar
    20     16     24 ar
    21     17     18 ar
    22     17     23 ar
    23     18     19 ar
    24     21     22 ar
    25     21     25 ar
    26     22     23 ar
    27     23     24 ar
    28     24     25 ar
    29      6     26 1 
    30      7     27 1 
    31      8     28 1 
    32      9     29 1 
    33     12     30 1 
    34     12     31 1 
    35     13     32 1 
    36     13     33 1 
    37     14     34 1 
    38     14     35 1 
    39     17     38 1 
    40     18     37 1 
    41     19     36 1 
    42     20     39 1 
    43     21     42 1 
    44     22     40 1 
    45     25     41 1 
@<TRIPOS>SUBSTRUCTURE
     1 MOL1         1 MOLECULE 1 A  MOL 
# Molecule written by the XED library from Cresset
