@<TRIPOS>MOLECULE
49
    41     43      1
SMALL
USER_CHARGES
@<TRIPOS>ATOM
      1  O           3.7483  -50.0541    7.1170 O.co2     1 MOL1        0.0000
      2  C           3.0006  -49.1057    6.7954 C.2       1 MOL1        0.0000
      3  O           3.4290  -47.9343    6.7113 O.2       1 MOL1        0.0000
      4  C           1.5768  -49.4207    6.4879 C.ar      1 MOL1        0.0000
      5  C          -0.1297  -50.9210    6.2861 C.ar      1 MOL1        0.0000
      6  C          -0.9519  -52.0650    6.2906 C.ar      1 MOL1        0.0000
      7  C          -2.3129  -51.9374    5.9451 C.ar      1 MOL1        0.0000
      8  C          -2.8209  -50.6854    5.5793 C.ar      1 MOL1        0.0000
      9  C          -1.9989  -49.5403    5.5815 C.ar      1 MOL1        0.0000
     10  C          -0.6224  -49.6228    5.9597 C.ar      1 MOL1        0.0000
     11  C           0.4706  -48.6823    6.1245 C.ar      1 MOL1        0.0000
     12  C           0.3811  -47.1915    5.9728 C.3       1 MOL1        0.0000
     13  C          -0.2096  -46.5273    7.2339 C.3       1 MOL1        0.0000
     14  C          -0.7304  -45.1005    6.9792 C.3       1 MOL1        0.0000
     15  O          -1.8882  -45.1382    6.1518 O.3       1 MOL1        0.0000
     16  C          -3.1367  -45.2529    6.7348 C.ar      1 MOL1        0.0000
     17  C          -3.3729  -45.5902    8.0931 C.ar      1 MOL1        0.0000
     18  C          -4.6916  -45.7161    8.5834 C.ar      1 MOL1        0.0000
     19  C          -4.9112  -46.1093   10.0362 C.3       1 MOL1        0.0000
     20  C          -5.7883  -45.5041    7.7218 C.ar      1 MOL1        0.0000
     21  CL         -7.4049  -45.7013    8.2786 Cl        1 MOL1        0.0000
     22  C          -5.5577  -45.1489    6.3816 C.ar      1 MOL1        0.0000
     23  C          -4.2425  -45.0326    5.8932 C.ar      1 MOL1        0.0000
     24  CL         -2.6995  -48.0386    5.1160 Cl        1 MOL1        0.0000
     25  N           1.2122  -50.7518    6.5733 N.pl3     1 MOL1        0.0000
     26  H          -0.5470  -53.0187    6.5853 H         1 MOL1        0.0000
     27  H          -2.9489  -52.8070    5.9633 H         1 MOL1        0.0000
     28  H          -3.8615  -50.6005    5.3069 H         1 MOL1        0.0000
     29  H          -0.2419  -46.9394    5.1146 H         1 MOL1        0.0000
     30  H           1.3536  -46.7639    5.7460 H         1 MOL1        0.0000
     31  H           0.5347  -46.5325    8.0286 H         1 MOL1        0.0000
     32  H          -1.0434  -47.1256    7.5991 H         1 MOL1        0.0000
     33  H           0.0419  -44.5299    6.4634 H         1 MOL1        0.0000
     34  H          -0.9160  -44.5739    7.9150 H         1 MOL1        0.0000
     35  H          -2.5431  -45.7658    8.7612 H         1 MOL1        0.0000
     36  H          -5.5897  -45.4170   10.5401 H         1 MOL1        0.0000
     37  H          -5.3477  -47.1100   10.0915 H         1 MOL1        0.0000
     38  H          -3.9767  -46.1161   10.6002 H         1 MOL1        0.0000
     39  H          -4.0872  -44.7713    4.8560 H         1 MOL1        0.0000
     40  H          -6.3952  -44.9810    5.7191 H         1 MOL1        0.0000
     41  H           1.8907  -51.4663    6.8340 H         1 MOL1        0.0000
@<TRIPOS>BOND
     1      1      2 1 
     2      2      3 2 
     3      2      4 1 
     4      4     11 ar
     5      4     25 ar
     6      5      6 ar
     7      5     10 ar
     8      5     25 ar
     9      6      7 ar
    10      7      8 ar
    11      8      9 ar
    12      9     10 ar
    13      9     24 1 
    14     10     11 ar
    15     11     12 1 
    16     12     13 1 
    17     13     14 1 
    18     14     15 1 
    19     15     16 1 
    20     16     17 ar
    21     16     23 ar
    22     17     18 ar
    23     18     19 1 
    24     18     20 ar
    25     20     21 1 
    26     20     22 ar
    27     22     23 ar
    28      6     26 1 
    29      7     27 1 
    30      8     28 1 
    31     12     29 1 
    32     12     30 1 
    33     13     31 1 
    34     13     32 1 
    35     14     33 1 
    36     14     34 1 
    37     17     35 1 
    38     19     36 1 
    39     19     37 1 
    40     19     38 1 
    41     22     40 1 
    42     23     39 1 
    43     25     41 1 
@<TRIPOS>SUBSTRUCTURE
     1 MOL1         1 MOLECULE 1 A  MOL 
# Molecule written by the XED library from Cresset
