@<TRIPOS>MOLECULE
50
    44     46      1
SMALL
USER_CHARGES
@<TRIPOS>ATOM
      1  O           3.7793  -49.8551    7.0486 O.co2     1 MOL1        0.0000
      2  C           2.9869  -48.9536    6.6755 C.2       1 MOL1        0.0000
      3  O           3.3674  -47.7712    6.5283 O.2       1 MOL1        0.0000
      4  C           1.5743  -49.3351    6.4116 C.ar      1 MOL1        0.0000
      5  C          -0.1186  -50.8654    6.3660 C.ar      1 MOL1        0.0000
      6  C          -0.9353  -52.0079    6.4726 C.ar      1 MOL1        0.0000
      7  C          -2.2983  -51.9243    6.1497 C.ar      1 MOL1        0.0000
      8  C          -2.8394  -50.6992    5.7155 C.ar      1 MOL1        0.0000
      9  C          -2.0219  -49.5504    5.6229 C.ar      1 MOL1        0.0000
     10  C          -0.6359  -49.6058    5.9539 C.ar      1 MOL1        0.0000
     11  C           0.4437  -48.6413    6.0163 C.ar      1 MOL1        0.0000
     12  C           0.3299  -47.1710    5.7539 C.3       1 MOL1        0.0000
     13  C          -0.1581  -46.4326    7.0125 C.3       1 MOL1        0.0000
     14  C          -0.6377  -45.0064    6.7266 C.3       1 MOL1        0.0000
     15  O          -1.8216  -45.0466    5.9392 O.3       1 MOL1        0.0000
     16  C          -3.0478  -45.1371    6.5648 C.ar      1 MOL1        0.0000
     17  C          -3.2350  -45.4603    7.9288 C.ar      1 MOL1        0.0000
     18  C          -4.5322  -45.6029    8.4606 C.ar      1 MOL1        0.0000
     19  C          -4.6965  -46.0234    9.9032 C.3       1 MOL1        0.0000
     20  C          -5.6613  -45.3986    7.6394 C.ar      1 MOL1        0.0000
     21  CL         -7.2509  -45.6153    8.2746 Cl        1 MOL1        0.0000
     22  C          -5.4842  -45.0381    6.2876 C.ar      1 MOL1        0.0000
     23  C          -6.6772  -44.8280    5.3721 C.3       1 MOL1        0.0000
     24  C          -4.1811  -44.9222    5.7571 C.ar      1 MOL1        0.0000
     25  CL         -2.7591  -48.0672    5.1129 Cl        1 MOL1        0.0000
     26  N           1.2283  -50.6666    6.6110 N.pl3     1 MOL1        0.0000
     27  H          -0.5074  -52.9447    6.8061 H         1 MOL1        0.0000
     28  H          -2.9294  -52.8025    6.2356 H         1 MOL1        0.0000
     29  H          -3.8920  -50.6527    5.4647 H         1 MOL1        0.0000
     30  H          -0.3547  -46.9813    4.9224 H         1 MOL1        0.0000
     31  H           1.2818  -46.7549    5.4393 H         1 MOL1        0.0000
     32  H           0.6482  -46.4140    7.7546 H         1 MOL1        0.0000
     33  H          -0.9697  -47.0031    7.4646 H         1 MOL1        0.0000
     34  H           0.1311  -44.4722    6.1648 H         1 MOL1        0.0000
     35  H          -0.7740  -44.4350    7.6482 H         1 MOL1        0.0000
     36  H          -2.3878  -45.6250    8.5742 H         1 MOL1        0.0000
     37  H          -5.3628  -45.3425   10.4435 H         1 MOL1        0.0000
     38  H          -5.1215  -47.0319    9.9632 H         1 MOL1        0.0000
     39  H          -3.7378  -46.0406   10.4320 H         1 MOL1        0.0000
     40  H          -6.3693  -44.5230    4.3710 H         1 MOL1        0.0000
     41  H          -7.2388  -45.7616    5.2796 H         1 MOL1        0.0000
     42  H          -7.3363  -44.0653    5.7749 H         1 MOL1        0.0000
     43  H          -4.0437  -44.6634    4.7162 H         1 MOL1        0.0000
     44  H           1.9287  -51.3488    6.9074 H         1 MOL1        0.0000
@<TRIPOS>BOND
     1      1      2 1 
     2      2      3 2 
     3      2      4 1 
     4      4     11 ar
     5      4     26 ar
     6      5      6 ar
     7      5     10 ar
     8      5     26 ar
     9      6      7 ar
    10      7      8 ar
    11      8      9 ar
    12      9     10 ar
    13      9     25 1 
    14     10     11 ar
    15     11     12 1 
    16     12     13 1 
    17     13     14 1 
    18     14     15 1 
    19     15     16 1 
    20     16     17 ar
    21     16     24 ar
    22     17     18 ar
    23     18     19 1 
    24     18     20 ar
    25     20     21 1 
    26     20     22 ar
    27     22     23 1 
    28     22     24 ar
    29      6     27 1 
    30      7     28 1 
    31      8     29 1 
    32     12     30 1 
    33     12     31 1 
    34     13     32 1 
    35     13     33 1 
    36     14     34 1 
    37     14     35 1 
    38     17     36 1 
    39     19     37 1 
    40     19     38 1 
    41     19     39 1 
    42     23     40 1 
    43     23     41 1 
    44     23     42 1 
    45     24     43 1 
    46     26     44 1 
@<TRIPOS>SUBSTRUCTURE
     1 MOL1         1 MOLECULE 1 A  MOL 
# Molecule written by the XED library from Cresset
