@<TRIPOS>MOLECULE
51
    44     47      1
SMALL
USER_CHARGES
@<TRIPOS>ATOM
      1  O           3.7527  -49.6152    6.8636 O.co2     1 MOL1        0.0000
      2  C           2.8848  -48.7317    6.6600 C.2       1 MOL1        0.0000
      3  O           3.1745  -47.5142    6.7244 O.2       1 MOL1        0.0000
      4  C           1.4963  -49.1647    6.3449 C.ar      1 MOL1        0.0000
      5  C          -0.1706  -50.7326    6.1724 C.ar      1 MOL1        0.0000
      6  C          -0.9638  -51.8980    6.1848 C.ar      1 MOL1        0.0000
      7  C          -2.3385  -51.8063    5.8920 C.ar      1 MOL1        0.0000
      8  C          -2.8945  -50.5470    5.5892 C.ar      1 MOL1        0.0000
      9  C          -2.1048  -49.3755    5.5930 C.ar      1 MOL1        0.0000
     10  C          -0.7152  -49.4395    5.8829 C.ar      1 MOL1        0.0000
     11  C           0.3471  -48.4704    6.0111 C.ar      1 MOL1        0.0000
     12  C           0.2138  -46.9863    5.9181 C.3       1 MOL1        0.0000
     13  C          -0.0845  -46.4209    7.3062 C.3       1 MOL1        0.0000
     14  C          -0.6144  -44.9916    7.3052 C.3       1 MOL1        0.0000
     15  O          -1.9032  -44.9246    6.7062 O.3       1 MOL1        0.0000
     16  C          -3.0236  -45.1515    7.4787 C.ar      1 MOL1        0.0000
     17  C          -5.3750  -45.5596    9.0081 C.ar      1 MOL1        0.0000
     18  C          -4.1326  -45.9972    9.4926 C.ar      1 MOL1        0.0000
     19  C          -2.9744  -45.8157    8.7239 C.ar      1 MOL1        0.0000
     20  CL         -2.8919  -47.8611    5.2687 Cl        1 MOL1        0.0000
     21  C          -5.4558  -44.9041    7.7675 C.ar      1 MOL1        0.0000
     22  C          -4.2759  -44.6954    7.0025 C.ar      1 MOL1        0.0000
     23  C          -4.3683  -44.0049    5.7701 C.ar      1 MOL1        0.0000
     24  C          -5.6111  -43.5273    5.3116 C.ar      1 MOL1        0.0000
     25  C          -6.7775  -43.7552    6.0709 C.ar      1 MOL1        0.0000
     26  C          -6.7018  -44.4463    7.2927 C.ar      1 MOL1        0.0000
     27  N           1.1745  -50.5105    6.4276 N.pl3     1 MOL1        0.0000
     28  H          -0.5176  -52.8580    6.4257 H         1 MOL1        0.0000
     29  H          -2.9480  -52.6929    5.8996 H         1 MOL1        0.0000
     30  H          -3.9451  -50.4849    5.3600 H         1 MOL1        0.0000
     31  H          -0.5735  -46.7018    5.2184 H         1 MOL1        0.0000
     32  H           1.1226  -46.5310    5.5107 H         1 MOL1        0.0000
     33  H           0.8231  -46.4830    7.8976 H         1 MOL1        0.0000
     34  H          -0.8063  -47.0664    7.8111 H         1 MOL1        0.0000
     35  H           0.0691  -44.3813    6.7142 H         1 MOL1        0.0000
     36  H          -0.6277  -44.5695    8.3150 H         1 MOL1        0.0000
     37  H          -2.0412  -46.1723    9.1262 H         1 MOL1        0.0000
     38  H          -3.4833  -43.8281    5.1811 H         1 MOL1        0.0000
     39  H          -5.6684  -42.9880    4.3736 H         1 MOL1        0.0000
     40  H          -7.7319  -43.3883    5.7175 H         1 MOL1        0.0000
     41  H          -7.5959  -44.6138    7.8717 H         1 MOL1        0.0000
     42  H          -4.0734  -46.4936   10.4507 H         1 MOL1        0.0000
     43  H          -6.2681  -45.7131    9.5988 H         1 MOL1        0.0000
     44  H           1.8793  -51.1829    6.6898 H         1 MOL1        0.0000
@<TRIPOS>BOND
     1      1      2 1 
     2      2      3 2 
     3      2      4 1 
     4      4     11 ar
     5      4     27 ar
     6      5      6 ar
     7      5     10 ar
     8      5     27 ar
     9      6      7 ar
    10      7      8 ar
    11      8      9 ar
    12      9     10 ar
    13      9     20 1 
    14     10     11 ar
    15     11     12 1 
    16     12     13 1 
    17     13     14 1 
    18     14     15 1 
    19     15     16 1 
    20     16     19 ar
    21     16     22 ar
    22     17     18 ar
    23     17     21 ar
    24     18     19 ar
    25     21     22 ar
    26     21     26 ar
    27     22     23 ar
    28     23     24 ar
    29     24     25 ar
    30     25     26 ar
    31      6     28 1 
    32      7     29 1 
    33      8     30 1 
    34     12     31 1 
    35     12     32 1 
    36     13     33 1 
    37     13     34 1 
    38     14     35 1 
    39     14     36 1 
    40     17     43 1 
    41     18     42 1 
    42     19     37 1 
    43     23     38 1 
    44     24     39 1 
    45     25     40 1 
    46     26     41 1 
    47     27     44 1 
@<TRIPOS>SUBSTRUCTURE
     1 MOL1         1 MOLECULE 1 A  MOL 
# Molecule written by the XED library from Cresset
