@<TRIPOS>MOLECULE
52
    41     43      1
SMALL
USER_CHARGES
@<TRIPOS>ATOM
      1  O           3.6519  -50.1731    7.5910 O.co2     1 MOL1        0.0000
      2  C           3.0433  -49.1959    7.1015 C.2       1 MOL1        0.0000
      3  O           3.5655  -48.0687    6.9870 O.2       1 MOL1        0.0000
      4  C           1.6483  -49.3725    6.6570 C.ar      1 MOL1        0.0000
      5  C          -0.3320  -50.4839    6.5819 C.ar      1 MOL1        0.0000
      6  C          -1.4113  -51.3646    6.7488 C.ar      1 MOL1        0.0000
      7  C          -2.6844  -50.9778    6.2976 C.ar      1 MOL1        0.0000
      8  C          -2.8676  -49.7470    5.6359 C.ar      1 MOL1        0.0000
      9  C          -1.7777  -48.8758    5.4639 C.ar      1 MOL1        0.0000
     10  C          -0.4901  -49.2182    5.9483 C.ar      1 MOL1        0.0000
     11  C           0.7777  -48.5424    5.9916 C.ar      1 MOL1        0.0000
     12  C           1.0475  -47.1566    5.5153 C.3       1 MOL1        0.0000
     13  C           1.0218  -46.1839    6.7045 C.3       1 MOL1        0.0000
     14  C           0.4477  -44.8206    6.3095 C.3       1 MOL1        0.0000
     15  O          -0.8651  -44.8822    5.7760 O.3       1 MOL1        0.0000
     16  C          -1.9430  -45.1814    6.5878 C.ar      1 MOL1        0.0000
     17  C          -3.2160  -45.1421    5.9801 C.ar      1 MOL1        0.0000
     18  C          -4.3936  -45.3534    6.7336 C.ar      1 MOL1        0.0000
     19  C          -5.7495  -45.1797    6.0705 C.3       1 MOL1        0.0000
     20  C          -4.2869  -45.6872    8.1025 C.ar      1 MOL1        0.0000
     21  CL         -5.6898  -46.0040    9.0603 Cl        1 MOL1        0.0000
     22  C          -3.0245  -45.7414    8.7159 C.ar      1 MOL1        0.0000
     23  C          -1.8648  -45.4531    7.9752 C.ar      1 MOL1        0.0000
     24  CL         -4.0424  -51.9828    6.5895 Cl        1 MOL1        0.0000
     25  N           0.9956  -50.5546    6.9557 N.pl3     1 MOL1        0.0000
     26  H          -1.2649  -52.3092    7.2560 H         1 MOL1        0.0000
     27  H          -3.8532  -49.4576    5.2953 H         1 MOL1        0.0000
     28  H          -1.9286  -47.9157    4.9823 H         1 MOL1        0.0000
     29  H           0.2992  -46.8849    4.7743 H         1 MOL1        0.0000
     30  H           2.0104  -47.0970    4.9985 H         1 MOL1        0.0000
     31  H           2.0265  -46.0516    7.1041 H         1 MOL1        0.0000
     32  H           0.4504  -46.6226    7.5182 H         1 MOL1        0.0000
     33  H           1.1107  -44.4322    5.5444 H         1 MOL1        0.0000
     34  H           0.4854  -44.0896    7.0996 H         1 MOL1        0.0000
     35  H          -3.2893  -44.9075    4.9284 H         1 MOL1        0.0000
     36  H          -6.4354  -45.9831    6.3550 H         1 MOL1        0.0000
     37  H          -6.1890  -44.2318    6.3827 H         1 MOL1        0.0000
     38  H          -5.6734  -45.1750    4.9829 H         1 MOL1        0.0000
     39  H          -0.9262  -45.4276    8.5063 H         1 MOL1        0.0000
     40  H          -2.9412  -45.9827    9.7646 H         1 MOL1        0.0000
     41  H           1.4807  -51.2969    7.4419 H         1 MOL1        0.0000
@<TRIPOS>BOND
     1      1      2 1 
     2      2      3 2 
     3      2      4 1 
     4      4     11 ar
     5      4     25 ar
     6      5      6 ar
     7      5     10 ar
     8      5     25 ar
     9      6      7 ar
    10      7      8 ar
    11      7     24 1 
    12      8      9 ar
    13      9     10 ar
    14     10     11 ar
    15     11     12 1 
    16     12     13 1 
    17     13     14 1 
    18     14     15 1 
    19     15     16 1 
    20     16     17 ar
    21     16     23 ar
    22     17     18 ar
    23     18     19 1 
    24     18     20 ar
    25     20     21 1 
    26     20     22 ar
    27     22     23 ar
    28      6     26 1 
    29      8     27 1 
    30      9     28 1 
    31     12     29 1 
    32     12     30 1 
    33     13     31 1 
    34     13     32 1 
    35     14     33 1 
    36     14     34 1 
    37     17     35 1 
    38     19     36 1 
    39     19     37 1 
    40     19     38 1 
    41     22     40 1 
    42     23     39 1 
    43     25     41 1 
@<TRIPOS>SUBSTRUCTURE
     1 MOL1         1 MOLECULE 1 A  MOL 
# Molecule written by the XED library from Cresset
