@<TRIPOS>MOLECULE
54
    44     47      1
SMALL
USER_CHARGES
@<TRIPOS>ATOM
      1  O           3.6008  -50.1426    7.0953 O.co2     1 MOL1        0.0000
      2  C           2.9945  -49.0877    6.7720 C.2       1 MOL1        0.0000
      3  O           3.5637  -47.9827    6.7380 O.2       1 MOL1        0.0000
      4  C           1.5546  -49.1833    6.4462 C.ar      1 MOL1        0.0000
      5  C          -0.4163  -50.3312    6.3666 C.ar      1 MOL1        0.0000
      6  C          -1.4599  -51.2734    6.4649 C.ar      1 MOL1        0.0000
      7  C          -2.7720  -50.8647    6.1354 C.ar      1 MOL1        0.0000
      8  C          -3.0153  -49.5600    5.6849 C.ar      1 MOL1        0.0000
      9  C          -1.9719  -48.6268    5.5970 C.ar      1 MOL1        0.0000
     10  C          -0.6362  -48.9893    5.9458 C.ar      1 MOL1        0.0000
     11  C           0.6049  -48.2698    6.0108 C.ar      1 MOL1        0.0000
     12  C           0.7928  -46.8042    5.7026 C.3       1 MOL1        0.0000
     13  C           0.7659  -45.9154    6.9617 C.3       1 MOL1        0.0000
     14  C          -0.4547  -46.1428    7.8719 C.3       1 MOL1        0.0000
     15  O          -1.6482  -45.7967    7.1768 O.3       1 MOL1        0.0000
     16  C          -2.8653  -46.0089    7.8013 C.ar      1 MOL1        0.0000
     17  C          -5.3919  -46.3961    9.0422 C.ar      1 MOL1        0.0000
     18  C          -4.2120  -46.7521    9.7091 C.ar      1 MOL1        0.0000
     19  C          -2.9640  -46.5642    9.0973 C.ar      1 MOL1        0.0000
     20  CL         -4.0633  -51.9831    6.3229 Cl        1 MOL1        0.0000
     21  C          -5.3220  -45.8538    7.7419 C.ar      1 MOL1        0.0000
     22  C          -4.0586  -45.6657    7.1236 C.ar      1 MOL1        0.0000
     23  C          -4.0089  -45.1257    5.8153 C.ar      1 MOL1        0.0000
     24  C          -5.1957  -44.7666    5.1494 C.ar      1 MOL1        0.0000
     25  C          -6.4462  -44.9616    5.7683 C.ar      1 MOL1        0.0000
     26  C          -6.5086  -45.5045    7.0675 C.ar      1 MOL1        0.0000
     27  N           0.9431  -50.4141    6.6339 N.pl3     1 MOL1        0.0000
     28  H          -1.2657  -52.2717    6.8071 H         1 MOL1        0.0000
     29  H          -4.0227  -49.2605    5.4253 H         1 MOL1        0.0000
     30  H          -2.1803  -47.6183    5.2861 H         1 MOL1        0.0000
     31  H          -0.0004  -46.4776    5.0287 H         1 MOL1        0.0000
     32  H           1.7311  -46.6449    5.1622 H         1 MOL1        0.0000
     33  H           0.8103  -44.8658    6.6678 H         1 MOL1        0.0000
     34  H           1.6726  -46.1131    7.5350 H         1 MOL1        0.0000
     35  H          -0.3610  -45.5322    8.7700 H         1 MOL1        0.0000
     36  H          -0.4705  -47.1846    8.1904 H         1 MOL1        0.0000
     37  H          -2.0870  -46.8540    9.6464 H         1 MOL1        0.0000
     38  H          -3.0572  -44.9736    5.3238 H         1 MOL1        0.0000
     39  H          -5.1460  -44.3459    4.1528 H         1 MOL1        0.0000
     40  H          -7.3538  -44.6861    5.2492 H         1 MOL1        0.0000
     41  H          -7.4693  -45.6476    7.5385 H         1 MOL1        0.0000
     42  H          -4.2660  -47.1681   10.6999 H         1 MOL1        0.0000
     43  H          -6.3463  -46.5386    9.5257 H         1 MOL1        0.0000
     44  H           1.4728  -51.2281    6.9597 H         1 MOL1        0.0000
@<TRIPOS>BOND
     1      1      2 1 
     2      2      3 2 
     3      2      4 1 
     4      4     11 ar
     5      4     27 ar
     6      5      6 ar
     7      5     10 ar
     8      5     27 ar
     9      6      7 ar
    10      7      8 ar
    11      7     20 1 
    12      8      9 ar
    13      9     10 ar
    14     10     11 ar
    15     11     12 1 
    16     12     13 1 
    17     13     14 1 
    18     14     15 1 
    19     15     16 1 
    20     16     19 ar
    21     16     22 ar
    22     17     18 ar
    23     17     21 ar
    24     18     19 ar
    25     21     22 ar
    26     21     26 ar
    27     22     23 ar
    28     23     24 ar
    29     24     25 ar
    30     25     26 ar
    31      6     28 1 
    32      8     29 1 
    33      9     30 1 
    34     12     31 1 
    35     12     32 1 
    36     13     33 1 
    37     13     34 1 
    38     14     35 1 
    39     14     36 1 
    40     17     43 1 
    41     18     42 1 
    42     19     37 1 
    43     23     38 1 
    44     24     39 1 
    45     25     40 1 
    46     26     41 1 
    47     27     44 1 
@<TRIPOS>SUBSTRUCTURE
     1 MOL1         1 MOLECULE 1 A  MOL 
# Molecule written by the XED library from Cresset
