@<TRIPOS>MOLECULE
56
    47     49      1
SMALL
USER_CHARGES
@<TRIPOS>ATOM
      1  O           3.8860  -49.6912    7.1567 O.co2     1 MOL1        0.0000
      2  C           3.1152  -48.8646    6.6079 C.2       1 MOL1        0.0000
      3  O           3.5628  -47.7316    6.3168 O.2       1 MOL1        0.0000
      4  C           1.6860  -49.2230    6.3249 C.ar      1 MOL1        0.0000
      5  C          -0.1971  -50.5147    6.2703 C.ar      1 MOL1        0.0000
      6  C          -1.1985  -51.5173    6.3677 C.ar      1 MOL1        0.0000
      7  C          -2.5251  -51.2521    5.9892 C.ar      1 MOL1        0.0000
      8  C          -2.8500  -49.9692    5.4926 C.ar      1 MOL1        0.0000
      9  C          -1.8593  -48.9599    5.3776 C.ar      1 MOL1        0.0000
     10  C          -0.5124  -49.2088    5.7723 C.ar      1 MOL1        0.0000
     11  C           0.6850  -48.4219    5.8067 C.ar      1 MOL1        0.0000
     12  C           0.7943  -46.9841    5.3695 C.3       1 MOL1        0.0000
     13  C           0.7867  -45.9897    6.5468 C.3       1 MOL1        0.0000
     14  C          -0.5620  -45.9184    7.2689 C.3       1 MOL1        0.0000
     15  O          -1.5108  -45.3393    6.3843 O.3       1 MOL1        0.0000
     16  C          -2.7734  -45.0766    6.8667 C.ar      1 MOL1        0.0000
     17  C          -3.2521  -45.5115    8.1245 C.ar      1 MOL1        0.0000
     18  C          -4.5558  -45.1862    8.5488 C.ar      1 MOL1        0.0000
     19  C          -5.0405  -45.6887    9.8958 C.3       1 MOL1        0.0000
     20  C          -5.3922  -44.4078    7.7183 C.ar      1 MOL1        0.0000
     21  CL         -6.9812  -43.9831    8.2402 Cl        1 MOL1        0.0000
     22  C          -4.9232  -43.9759    6.4562 C.ar      1 MOL1        0.0000
     23  C          -5.7953  -43.1306    5.5483 C.3       1 MOL1        0.0000
     24  C          -3.6246  -44.3209    6.0415 C.ar      1 MOL1        0.0000
     25  C           1.8852  -51.6780    7.1113 C.3       1 MOL1        0.0000
     26  N           1.1675  -50.5139    6.5888 N.pl3     1 MOL1        0.0000
     27  H          -0.9461  -52.4911    6.7461 H         1 MOL1        0.0000
     28  H          -3.2977  -52.0166    6.0792 H         1 MOL1        0.0000
     29  H          -3.8727  -49.7548    5.2030 H         1 MOL1        0.0000
     30  H          -2.1315  -47.9796    4.9971 H         1 MOL1        0.0000
     31  H          -0.0129  -46.7422    4.6760 H         1 MOL1        0.0000
     32  H           1.7136  -46.8490    4.7959 H         1 MOL1        0.0000
     33  H           1.0429  -44.9982    6.1728 H         1 MOL1        0.0000
     34  H           1.5694  -46.2498    7.2605 H         1 MOL1        0.0000
     35  H          -0.4587  -45.3075    8.1660 H         1 MOL1        0.0000
     36  H          -0.8794  -46.9155    7.5776 H         1 MOL1        0.0000
     37  H          -2.6285  -46.0979    8.7785 H         1 MOL1        0.0000
     38  H          -5.5447  -44.8979   10.4490 H         1 MOL1        0.0000
     39  H          -5.7400  -46.5119    9.7544 H         1 MOL1        0.0000
     40  H          -4.2150  -46.0488   10.5105 H         1 MOL1        0.0000
     41  H          -5.2719  -42.8544    4.6316 H         1 MOL1        0.0000
     42  H          -6.6997  -43.6722    5.2707 H         1 MOL1        0.0000
     43  H          -6.0850  -42.2110    6.0560 H         1 MOL1        0.0000
     44  H          -3.2624  -43.9924    5.0819 H         1 MOL1        0.0000
     45  H           1.2409  -52.5557    7.2050 H         1 MOL1        0.0000
     46  H           2.7069  -51.9461    6.4349 H         1 MOL1        0.0000
     47  H           2.2851  -51.4578    8.1087 H         1 MOL1        0.0000
@<TRIPOS>BOND
     1      1      2 1 
     2      2      3 2 
     3      2      4 1 
     4      4     11 ar
     5      4     26 ar
     6      5      6 ar
     7      5     10 ar
     8      5     26 ar
     9      6      7 ar
    10      7      8 ar
    11      8      9 ar
    12      9     10 ar
    13     10     11 ar
    14     11     12 1 
    15     12     13 1 
    16     13     14 1 
    17     14     15 1 
    18     15     16 1 
    19     16     17 ar
    20     16     24 ar
    21     17     18 ar
    22     18     19 1 
    23     18     20 ar
    24     20     21 1 
    25     20     22 ar
    26     22     23 1 
    27     22     24 ar
    28     25     26 1 
    29      6     27 1 
    30      7     28 1 
    31      8     29 1 
    32      9     30 1 
    33     12     31 1 
    34     12     32 1 
    35     13     33 1 
    36     13     34 1 
    37     14     35 1 
    38     14     36 1 
    39     17     37 1 
    40     19     38 1 
    41     19     39 1 
    42     19     40 1 
    43     23     41 1 
    44     23     42 1 
    45     23     43 1 
    46     24     44 1 
    47     25     45 1 
    48     25     46 1 
    49     25     47 1 
@<TRIPOS>SUBSTRUCTURE
     1 MOL1         1 MOLECULE 1 A  MOL 
# Molecule written by the XED library from Cresset
