@<TRIPOS>MOLECULE
57
    47     50      1
SMALL
USER_CHARGES
@<TRIPOS>ATOM
      1  O           3.5644  -47.6678    5.9794 O.co2     1 MOL1        0.0000
      2  C           3.1061  -48.6748    6.5602 C.2       1 MOL1        0.0000
      3  O           3.8451  -49.2908    7.3808 O.2       1 MOL1        0.0000
      4  C           1.6967  -49.0920    6.3186 C.ar      1 MOL1        0.0000
      5  C          -0.1535  -50.4335    6.3918 C.ar      1 MOL1        0.0000
      6  C          -1.1205  -51.4551    6.5735 C.ar      1 MOL1        0.0000
      7  C          -2.4473  -51.2528    6.1514 C.ar      1 MOL1        0.0000
      8  C          -2.8077  -50.0288    5.5584 C.ar      1 MOL1        0.0000
      9  C          -1.8532  -49.0185    5.3763 C.ar      1 MOL1        0.0000
     10  C          -0.4989  -49.1915    5.7783 C.ar      1 MOL1        0.0000
     11  C           0.6696  -48.3728    5.7223 C.ar      1 MOL1        0.0000
     12  C           0.7299  -46.9821    5.1515 C.3       1 MOL1        0.0000
     13  C           0.8228  -45.8723    6.2201 C.3       1 MOL1        0.0000
     14  C          -0.3002  -45.9030    7.2643 C.3       1 MOL1        0.0000
     15  O          -1.5339  -45.4785    6.6854 O.3       1 MOL1        0.0000
     16  C          -2.6539  -45.4735    7.4912 C.ar      1 MOL1        0.0000
     17  C          -5.0024  -45.4171    9.0952 C.ar      1 MOL1        0.0000
     18  C          -3.8541  -46.0855    9.5449 C.ar      1 MOL1        0.0000
     19  C          -2.6939  -46.1087    8.7532 C.ar      1 MOL1        0.0000
     20  C          -4.9934  -44.7821    7.8391 C.ar      1 MOL1        0.0000
     21  C          -3.8237  -44.8117    7.0307 C.ar      1 MOL1        0.0000
     22  C          -3.8421  -44.1736    5.7733 C.ar      1 MOL1        0.0000
     23  C          -5.0054  -43.5186    5.3209 C.ar      1 MOL1        0.0000
     24  C          -6.1590  -43.4918    6.1266 C.ar      1 MOL1        0.0000
     25  C          -6.1539  -44.1210    7.3843 C.ar      1 MOL1        0.0000
     26  C           1.9363  -51.4455    7.3369 C.3       1 MOL1        0.0000
     27  N           1.1956  -50.3552    6.7086 N.pl3     1 MOL1        0.0000
     28  H          -0.8445  -52.3872    7.0350 H         1 MOL1        0.0000
     29  H          -3.1800  -52.0331    6.2924 H         1 MOL1        0.0000
     30  H          -3.8316  -49.8714    5.2455 H         1 MOL1        0.0000
     31  H          -2.1448  -48.0802    4.9232 H         1 MOL1        0.0000
     32  H          -0.1474  -46.7977    4.5314 H         1 MOL1        0.0000
     33  H           1.5785  -46.8906    4.4715 H         1 MOL1        0.0000
     34  H           0.8564  -44.8926    5.7363 H         1 MOL1        0.0000
     35  H           1.7722  -45.9688    6.7479 H         1 MOL1        0.0000
     36  H          -0.0344  -45.2375    8.0851 H         1 MOL1        0.0000
     37  H          -0.3785  -46.9095    7.6717 H         1 MOL1        0.0000
     38  H          -1.8362  -46.6348    9.1369 H         1 MOL1        0.0000
     39  H          -2.9702  -44.1816    5.1360 H         1 MOL1        0.0000
     40  H          -5.0097  -43.0370    4.3537 H         1 MOL1        0.0000
     41  H          -7.0512  -42.9879    5.7771 H         1 MOL1        0.0000
     42  H          -7.0438  -44.0981    7.9957 H         1 MOL1        0.0000
     43  H          -3.8631  -46.5752   10.5084 H         1 MOL1        0.0000
     44  H          -5.8881  -45.3965    9.7122 H         1 MOL1        0.0000
     45  H           1.3189  -52.3385    7.4455 H         1 MOL1        0.0000
     46  H           2.8013  -51.7103    6.7182 H         1 MOL1        0.0000
     47  H           2.2782  -51.1417    8.3335 H         1 MOL1        0.0000
@<TRIPOS>BOND
     1      1      2 1 
     2      2      3 2 
     3      2      4 1 
     4      4     11 ar
     5      4     27 ar
     6      5      6 ar
     7      5     10 ar
     8      5     27 ar
     9      6      7 ar
    10      7      8 ar
    11      8      9 ar
    12      9     10 ar
    13     10     11 ar
    14     11     12 1 
    15     12     13 1 
    16     13     14 1 
    17     14     15 1 
    18     15     16 1 
    19     16     19 ar
    20     16     21 ar
    21     17     18 ar
    22     17     20 ar
    23     18     19 ar
    24     20     21 ar
    25     20     25 ar
    26     21     22 ar
    27     22     23 ar
    28     23     24 ar
    29     24     25 ar
    30     26     27 1 
    31      6     28 1 
    32      7     29 1 
    33      8     30 1 
    34      9     31 1 
    35     12     32 1 
    36     12     33 1 
    37     13     34 1 
    38     13     35 1 
    39     14     36 1 
    40     14     37 1 
    41     17     44 1 
    42     18     43 1 
    43     19     38 1 
    44     22     39 1 
    45     23     40 1 
    46     24     41 1 
    47     25     42 1 
    48     26     45 1 
    49     26     46 1 
    50     26     47 1 
@<TRIPOS>SUBSTRUCTURE
     1 MOL1         1 MOLECULE 1 A  MOL 
# Molecule written by the XED library from Cresset
