@<TRIPOS>MOLECULE
61
    43     45      1
SMALL
USER_CHARGES
@<TRIPOS>ATOM
      1  O           3.8815  -49.5255    6.8965 O.co2     1 MOL1        0.0000
      2  C           2.9282  -48.7315    6.8254 C.2       1 MOL1        0.0000
      3  O           3.1342  -47.4910    6.9198 O.2       1 MOL1        0.0000
      4  C           1.5361  -49.2540    6.6236 C.ar      1 MOL1        0.0000
      5  S           1.4251  -50.9973    6.6970 S.3       1 MOL1        0.0000
      6  C          -0.3094  -50.9694    6.4244 C.ar      1 MOL1        0.0000
      7  C          -1.1509  -52.0864    6.3706 C.ar      1 MOL1        0.0000
      8  C          -2.5142  -51.9293    6.1225 C.ar      1 MOL1        0.0000
      9  C          -3.0254  -50.6311    5.9294 C.ar      1 MOL1        0.0000
     10  C          -2.1817  -49.5063    5.9843 C.ar      1 MOL1        0.0000
     11  C          -0.7821  -49.6253    6.2498 C.ar      1 MOL1        0.0000
     12  C           0.3084  -48.6541    6.3900 C.ar      1 MOL1        0.0000
     13  C           0.1210  -47.1523    6.2826 C.3       1 MOL1        0.0000
     14  C          -0.4501  -46.5529    7.5729 C.3       1 MOL1        0.0000
     15  C          -0.8431  -45.0778    7.3833 C.3       1 MOL1        0.0000
     16  O          -1.8680  -44.9577    6.4022 O.3       1 MOL1        0.0000
     17  C          -3.1956  -44.8477    6.7661 C.ar      1 MOL1        0.0000
     18  C          -3.7127  -45.1304    8.0498 C.ar      1 MOL1        0.0000
     19  C          -5.0949  -44.9814    8.3077 C.ar      1 MOL1        0.0000
     20  C          -5.6273  -45.2973    9.7021 C.3       1 MOL1        0.0000
     21  C          -5.9651  -44.5579    7.2880 C.ar      1 MOL1        0.0000
     22  CL         -7.6628  -44.3657    7.6086 Cl        1 MOL1        0.0000
     23  C          -5.4616  -44.2951    6.0024 C.ar      1 MOL1        0.0000
     24  C          -6.3759  -43.8528    4.8618 C.3       1 MOL1        0.0000
     25  C          -4.0824  -44.4393    5.7601 C.ar      1 MOL1        0.0000
     26  CL         -2.9292  -47.9598    5.6975 Cl        1 MOL1        0.0000
     27  H          -0.7430  -53.0870    6.5090 H         1 MOL1        0.0000
     28  H          -3.1757  -52.7798    6.0762 H         1 MOL1        0.0000
     29  H          -4.0808  -50.5038    5.7246 H         1 MOL1        0.0000
     30  H          -0.5261  -46.9314    5.4468 H         1 MOL1        0.0000
     31  H           1.0628  -46.6617    6.0132 H         1 MOL1        0.0000
     32  H           0.2860  -46.6477    8.3768 H         1 MOL1        0.0000
     33  H          -1.3235  -47.1179    7.8959 H         1 MOL1        0.0000
     34  H           0.0265  -44.5324    7.0297 H         1 MOL1        0.0000
     35  H          -1.1174  -44.6109    8.3212 H         1 MOL1        0.0000
     36  H          -3.0668  -45.4819    8.8414 H         1 MOL1        0.0000
     37  H          -6.2638  -44.4906   10.0769 H         1 MOL1        0.0000
     38  H          -6.2145  -46.2158    9.6761 H         1 MOL1        0.0000
     39  H          -4.8148  -45.4370   10.4139 H         1 MOL1        0.0000
     40  H          -5.8052  -43.6609    3.9503 H         1 MOL1        0.0000
     41  H          -7.1109  -44.6277    4.6383 H         1 MOL1        0.0000
     42  H          -6.9047  -42.9346    5.1216 H         1 MOL1        0.0000
     43  H          -3.6927  -44.2334    4.7674 H         1 MOL1        0.0000
@<TRIPOS>BOND
     1      1      2 1 
     2      2      3 2 
     3      2      4 1 
     4      4      5 ar
     5      4     12 ar
     6      5      6 ar
     7      6      7 ar
     8      6     11 ar
     9      7      8 ar
    10      8      9 ar
    11      9     10 ar
    12     10     11 ar
    13     10     26 1 
    14     11     12 ar
    15     12     13 1 
    16     13     14 1 
    17     14     15 1 
    18     15     16 1 
    19     16     17 1 
    20     17     18 ar
    21     17     25 ar
    22     18     19 ar
    23     19     20 1 
    24     19     21 ar
    25     21     22 1 
    26     21     23 ar
    27     23     24 1 
    28     23     25 ar
    29      7     27 1 
    30      8     28 1 
    31      9     29 1 
    32     13     30 1 
    33     13     31 1 
    34     14     32 1 
    35     14     33 1 
    36     15     34 1 
    37     15     35 1 
    38     18     36 1 
    39     20     37 1 
    40     20     38 1 
    41     20     39 1 
    42     24     40 1 
    43     24     41 1 
    44     24     42 1 
    45     25     43 1 
@<TRIPOS>SUBSTRUCTURE
     1 MOL1         1 MOLECULE 1 A  MOL 
# Molecule written by the XED library from Cresset
