@<TRIPOS>MOLECULE
62
    43     46      1
SMALL
USER_CHARGES
@<TRIPOS>ATOM
      1  O           3.5438  -47.5772    5.7905 O.co2     1 MOL1        0.0000
      2  C           3.1835  -48.5307    6.5190 C.2       1 MOL1        0.0000
      3  O           3.9583  -48.9716    7.3983 O.2       1 MOL1        0.0000
      4  C           1.8205  -49.1108    6.3417 C.ar      1 MOL1        0.0000
      5  S           1.6677  -50.7691    6.8730 S.3       1 MOL1        0.0000
      6  C          -0.0534  -50.7822    6.5135 C.ar      1 MOL1        0.0000
      7  C          -0.9252  -51.8582    6.7331 C.ar      1 MOL1        0.0000
      8  C          -2.2931  -51.7406    6.4181 C.ar      1 MOL1        0.0000
      9  C          -2.7610  -50.5248    5.8913 C.ar      1 MOL1        0.0000
     10  C          -1.8910  -49.4330    5.6876 C.ar      1 MOL1        0.0000
     11  C          -0.4943  -49.5299    5.9753 C.ar      1 MOL1        0.0000
     12  C           0.6271  -48.5701    5.8889 C.ar      1 MOL1        0.0000
     13  C           0.4730  -47.1115    5.5285 C.3       1 MOL1        0.0000
     14  C           0.1924  -46.3223    6.8187 C.3       1 MOL1        0.0000
     15  C          -0.5189  -44.9864    6.6239 C.3       1 MOL1        0.0000
     16  O          -1.8770  -45.1797    6.2416 O.3       1 MOL1        0.0000
     17  C          -2.8344  -45.2637    7.2315 C.ar      1 MOL1        0.0000
     18  C          -4.9255  -45.4944    9.1209 C.ar      1 MOL1        0.0000
     19  C          -3.6260  -45.9830    9.4207 C.ar      1 MOL1        0.0000
     20  C          -2.5867  -45.7933    8.5093 C.ar      1 MOL1        0.0000
     21  CL         -2.6124  -47.9686    5.0985 Cl        1 MOL1        0.0000
     22  C          -5.1778  -44.8765    7.8875 C.ar      1 MOL1        0.0000
     23  C          -4.1442  -44.7749    6.9318 C.ar      1 MOL1        0.0000
     24  C          -4.4214  -44.1639    5.6900 C.ar      1 MOL1        0.0000
     25  C          -5.7020  -43.6469    5.4010 C.ar      1 MOL1        0.0000
     26  C          -6.7289  -43.7443    6.3621 C.ar      1 MOL1        0.0000
     27  C          -6.4652  -44.3618    7.6033 C.ar      1 MOL1        0.0000
     28  H          -0.5445  -52.7829    7.1443 H         1 MOL1        0.0000
     29  H          -2.9629  -52.5707    6.5722 H         1 MOL1        0.0000
     30  H          -3.8074  -50.4318    5.6453 H         1 MOL1        0.0000
     31  H          -0.3095  -46.9567    4.7865 H         1 MOL1        0.0000
     32  H           1.3663  -46.7329    5.0246 H         1 MOL1        0.0000
     33  H           1.1354  -46.1804    7.3386 H         1 MOL1        0.0000
     34  H          -0.4110  -46.9370    7.4640 H         1 MOL1        0.0000
     35  H          -0.0242  -44.4093    5.8295 H         1 MOL1        0.0000
     36  H          -0.4473  -44.3727    7.5269 H         1 MOL1        0.0000
     37  H          -1.6007  -46.1009    8.7965 H         1 MOL1        0.0000
     38  H          -3.6486  -44.0600    4.9342 H         1 MOL1        0.0000
     39  H          -5.8890  -43.1675    4.4469 H         1 MOL1        0.0000
     40  H          -7.7027  -43.3379    6.1482 H         1 MOL1        0.0000
     41  H          -7.2573  -44.4288    8.3269 H         1 MOL1        0.0000
     42  H          -3.4577  -46.4365   10.3980 H         1 MOL1        0.0000
     43  H          -5.7255  -45.5994    9.8513 H         1 MOL1        0.0000
@<TRIPOS>BOND
     1      1      2 1 
     2      2      3 2 
     3      2      4 1 
     4      4      5 ar
     5      4     12 ar
     6      5      6 ar
     7      6      7 ar
     8      6     11 ar
     9      7      8 ar
    10      8      9 ar
    11      9     10 ar
    12     10     11 ar
    13     10     21 1 
    14     11     12 ar
    15     12     13 1 
    16     13     14 1 
    17     14     15 1 
    18     15     16 1 
    19     16     17 1 
    20     17     20 ar
    21     17     23 ar
    22     18     19 ar
    23     18     22 ar
    24     19     20 ar
    25     22     23 ar
    26     22     27 ar
    27     23     24 ar
    28     24     25 ar
    29     25     26 ar
    30     26     27 ar
    31      7     28 1 
    32      8     29 1 
    33      9     30 1 
    34     13     31 1 
    35     13     32 1 
    36     14     33 1 
    37     14     34 1 
    38     15     35 1 
    39     15     36 1 
    40     18     43 1 
    41     19     42 1 
    42     20     37 1 
    43     24     38 1 
    44     25     39 1 
    45     26     40 1 
    46     27     41 1 
@<TRIPOS>SUBSTRUCTURE
     1 MOL1         1 MOLECULE 1 A  MOL 
# Molecule written by the XED library from Cresset
