@<TRIPOS>MOLECULE
63
    43     45      1
SMALL
USER_CHARGES
@<TRIPOS>ATOM
      1  O           3.8904  -49.9128    7.2593 O.co2     1 MOL1        0.0000
      2  C           3.1473  -49.0461    6.7409 C.2       1 MOL1        0.0000
      3  O           3.5646  -47.8962    6.4882 O.2       1 MOL1        0.0000
      4  C           1.7208  -49.3609    6.4386 C.ar      1 MOL1        0.0000
      5  S           1.1474  -50.8838    7.0571 S.3       1 MOL1        0.0000
      6  C          -0.4833  -50.5334    6.5324 C.ar      1 MOL1        0.0000
      7  C          -1.6406  -51.2952    6.7763 C.ar      1 MOL1        0.0000
      8  C          -2.8824  -50.8186    6.3195 C.ar      1 MOL1        0.0000
      9  C          -2.9595  -49.6440    5.5579 C.ar      1 MOL1        0.0000
     10  C          -1.7949  -48.9052    5.3019 C.ar      1 MOL1        0.0000
     11  C          -0.5283  -49.2970    5.8096 C.ar      1 MOL1        0.0000
     12  C           0.7542  -48.6240    5.7715 C.ar      1 MOL1        0.0000
     13  C           0.9557  -47.2723    5.1257 C.3       1 MOL1        0.0000
     14  C           0.9944  -46.0835    6.1170 C.3       1 MOL1        0.0000
     15  C          -0.1952  -46.0031    7.0806 C.3       1 MOL1        0.0000
     16  O          -1.3623  -45.5679    6.3922 O.3       1 MOL1        0.0000
     17  C          -2.5506  -45.5270    7.0930 C.ar      1 MOL1        0.0000
     18  C          -2.7548  -46.1613    8.3473 C.ar      1 MOL1        0.0000
     19  C          -4.0188  -46.1288    8.9720 C.ar      1 MOL1        0.0000
     20  C          -4.2211  -46.8876   10.2713 C.3       1 MOL1        0.0000
     21  C          -5.0918  -45.4247    8.3755 C.ar      1 MOL1        0.0000
     22  CL         -6.6499  -45.3836    9.1387 Cl        1 MOL1        0.0000
     23  C          -4.8818  -44.7661    7.1412 C.ar      1 MOL1        0.0000
     24  C          -6.0115  -43.9984    6.4841 C.3       1 MOL1        0.0000
     25  C          -3.6224  -44.8331    6.5031 C.ar      1 MOL1        0.0000
     26  CL         -4.3386  -51.6470    6.7125 Cl        1 MOL1        0.0000
     27  H          -1.5795  -52.2143    7.3495 H         1 MOL1        0.0000
     28  H          -3.9194  -49.3012    5.2017 H         1 MOL1        0.0000
     29  H          -1.8832  -47.9909    4.7442 H         1 MOL1        0.0000
     30  H           0.1640  -47.0922    4.3960 H         1 MOL1        0.0000
     31  H           1.8698  -47.2667    4.5291 H         1 MOL1        0.0000
     32  H           1.0868  -45.1511    5.5646 H         1 MOL1        0.0000
     33  H           1.8922  -46.1450    6.7293 H         1 MOL1        0.0000
     34  H           0.0117  -45.2867    7.8785 H         1 MOL1        0.0000
     35  H          -0.3308  -46.9791    7.5505 H         1 MOL1        0.0000
     36  H          -1.9638  -46.7104    8.8408 H         1 MOL1        0.0000
     37  H          -4.7411  -46.2780   11.0120 H         1 MOL1        0.0000
     38  H          -4.8108  -47.7889   10.0844 H         1 MOL1        0.0000
     39  H          -3.2644  -47.1869   10.7059 H         1 MOL1        0.0000
     40  H          -5.6796  -43.4841    5.5791 H         1 MOL1        0.0000
     41  H          -6.8222  -44.6778    6.2118 H         1 MOL1        0.0000
     42  H          -6.4107  -43.2477    7.1690 H         1 MOL1        0.0000
     43  H          -3.4707  -44.3451    5.5472 H         1 MOL1        0.0000
@<TRIPOS>BOND
     1      1      2 1 
     2      2      3 2 
     3      2      4 1 
     4      4      5 ar
     5      4     12 ar
     6      5      6 ar
     7      6      7 ar
     8      6     11 ar
     9      7      8 ar
    10      8      9 ar
    11      8     26 1 
    12      9     10 ar
    13     10     11 ar
    14     11     12 ar
    15     12     13 1 
    16     13     14 1 
    17     14     15 1 
    18     15     16 1 
    19     16     17 1 
    20     17     18 ar
    21     17     25 ar
    22     18     19 ar
    23     19     20 1 
    24     19     21 ar
    25     21     22 1 
    26     21     23 ar
    27     23     24 1 
    28     23     25 ar
    29      7     27 1 
    30      9     28 1 
    31     10     29 1 
    32     13     30 1 
    33     13     31 1 
    34     14     32 1 
    35     14     33 1 
    36     15     34 1 
    37     15     35 1 
    38     18     36 1 
    39     20     37 1 
    40     20     38 1 
    41     20     39 1 
    42     24     40 1 
    43     24     41 1 
    44     24     42 1 
    45     25     43 1 
@<TRIPOS>SUBSTRUCTURE
     1 MOL1         1 MOLECULE 1 A  MOL 
# Molecule written by the XED library from Cresset
