@<TRIPOS>MOLECULE
64
    43     46      1
SMALL
USER_CHARGES
@<TRIPOS>ATOM
      1  O           3.7996  -50.0339    7.1693 O.co2     1 MOL1        0.0000
      2  C           3.0736  -49.0720    6.8150 C.2       1 MOL1        0.0000
      3  O           3.5568  -47.9281    6.7106 O.2       1 MOL1        0.0000
      4  C           1.6291  -49.2883    6.5306 C.ar      1 MOL1        0.0000
      5  S           1.0906  -50.9347    6.7544 S.3       1 MOL1        0.0000
      6  C          -0.5531  -50.5009    6.3439 C.ar      1 MOL1        0.0000
      7  C          -1.6748  -51.3471    6.3184 C.ar      1 MOL1        0.0000
      8  C          -2.9396  -50.8176    5.9964 C.ar      1 MOL1        0.0000
      9  C          -3.0703  -49.4498    5.6863 C.ar      1 MOL1        0.0000
     10  C          -1.9354  -48.6227    5.6975 C.ar      1 MOL1        0.0000
     11  C          -0.6477  -49.1138    6.0302 C.ar      1 MOL1        0.0000
     12  C           0.6267  -48.4212    6.1334 C.ar      1 MOL1        0.0000
     13  C           0.7576  -46.9454    5.8670 C.3       1 MOL1        0.0000
     14  C           0.6927  -46.0787    7.1424 C.3       1 MOL1        0.0000
     15  C          -0.4919  -46.3659    8.0891 C.3       1 MOL1        0.0000
     16  O          -1.7426  -45.9685    7.5206 O.3       1 MOL1        0.0000
     17  C          -2.9139  -46.2506    8.2081 C.ar      1 MOL1        0.0000
     18  C          -5.3832  -46.7623    9.5425 C.ar      1 MOL1        0.0000
     19  C          -4.2148  -47.4264    9.9411 C.ar      1 MOL1        0.0000
     20  C          -2.9951  -47.1799    9.2808 C.ar      1 MOL1        0.0000
     21  CL         -4.3321  -51.8139    5.9914 Cl        1 MOL1        0.0000
     22  C          -5.3384  -45.8553    8.4662 C.ar      1 MOL1        0.0000
     23  C          -4.1071  -45.6003    7.7993 C.ar      1 MOL1        0.0000
     24  C          -4.0955  -44.6862    6.7189 C.ar      1 MOL1        0.0000
     25  C          -5.2802  -44.0441    6.3080 C.ar      1 MOL1        0.0000
     26  C          -6.4964  -44.3049    6.9742 C.ar      1 MOL1        0.0000
     27  C          -6.5207  -45.2090    8.0541 C.ar      1 MOL1        0.0000
     28  H          -1.5571  -52.3930    6.5589 H         1 MOL1        0.0000
     29  H          -4.0419  -49.0428    5.4468 H         1 MOL1        0.0000
     30  H          -2.0589  -47.5784    5.4692 H         1 MOL1        0.0000
     31  H          -0.0323  -46.6216    5.1911 H         1 MOL1        0.0000
     32  H           1.6817  -46.7381    5.3245 H         1 MOL1        0.0000
     33  H           0.7202  -45.0228    6.8726 H         1 MOL1        0.0000
     34  H           1.6078  -46.2705    7.7046 H         1 MOL1        0.0000
     35  H          -0.3459  -45.8119    9.0163 H         1 MOL1        0.0000
     36  H          -0.4790  -47.4240    8.3357 H         1 MOL1        0.0000
     37  H          -2.1519  -47.7522    9.6092 H         1 MOL1        0.0000
     38  H          -3.1805  -44.4680    6.1938 H         1 MOL1        0.0000
     39  H          -5.2589  -43.3516    5.4831 H         1 MOL1        0.0000
     40  H          -7.4007  -43.8160    6.6574 H         1 MOL1        0.0000
     41  H          -7.4574  -45.3993    8.5577 H         1 MOL1        0.0000
     42  H          -4.2479  -48.1459   10.7491 H         1 MOL1        0.0000
     43  H          -6.3129  -46.9661   10.0585 H         1 MOL1        0.0000
@<TRIPOS>BOND
     1      1      2 1 
     2      2      3 2 
     3      2      4 1 
     4      4      5 ar
     5      4     12 ar
     6      5      6 ar
     7      6      7 ar
     8      6     11 ar
     9      7      8 ar
    10      8      9 ar
    11      8     21 1 
    12      9     10 ar
    13     10     11 ar
    14     11     12 ar
    15     12     13 1 
    16     13     14 1 
    17     14     15 1 
    18     15     16 1 
    19     16     17 1 
    20     17     20 ar
    21     17     23 ar
    22     18     19 ar
    23     18     22 ar
    24     19     20 ar
    25     22     23 ar
    26     22     27 ar
    27     23     24 ar
    28     24     25 ar
    29     25     26 ar
    30     26     27 ar
    31      7     28 1 
    32      9     29 1 
    33     10     30 1 
    34     13     31 1 
    35     13     32 1 
    36     14     33 1 
    37     14     34 1 
    38     15     35 1 
    39     15     36 1 
    40     18     43 1 
    41     19     42 1 
    42     20     37 1 
    43     24     38 1 
    44     25     39 1 
    45     26     40 1 
    46     27     41 1 
@<TRIPOS>SUBSTRUCTURE
     1 MOL1         1 MOLECULE 1 A  MOL 
# Molecule written by the XED library from Cresset
