@<TRIPOS>MOLECULE
65
    43     45      1
SMALL
USER_CHARGES
@<TRIPOS>ATOM
      1  O           3.9461  -49.6120    7.0490 O.co2     1 MOL1        0.0000
      2  C           3.1658  -48.7770    6.5329 C.2       1 MOL1        0.0000
      3  O           3.5657  -47.6377    6.1960 O.2       1 MOL1        0.0000
      4  C           1.7275  -49.1194    6.3295 C.ar      1 MOL1        0.0000
      5  S           1.2733  -50.7336    6.7953 S.3       1 MOL1        0.0000
      6  C          -0.4025  -50.4753    6.3317 C.ar      1 MOL1        0.0000
      7  C          -1.4791  -51.3860    6.4178 C.ar      1 MOL1        0.0000
      8  C          -2.7670  -51.0046    6.0094 C.ar      1 MOL1        0.0000
      9  C          -2.9812  -49.7061    5.5114 C.ar      1 MOL1        0.0000
     10  C          -1.8984  -48.8064    5.4280 C.ar      1 MOL1        0.0000
     11  C          -0.5804  -49.1464    5.8290 C.ar      1 MOL1        0.0000
     12  C           0.6605  -48.3675    5.8411 C.ar      1 MOL1        0.0000
     13  C           0.7551  -46.9299    5.3888 C.3       1 MOL1        0.0000
     14  C           0.8986  -45.9247    6.5503 C.3       1 MOL1        0.0000
     15  C          -0.2812  -45.9301    7.5188 C.3       1 MOL1        0.0000
     16  O          -1.3961  -45.3197    6.8689 O.3       1 MOL1        0.0000
     17  C          -2.6319  -45.4537    7.4519 C.ar      1 MOL1        0.0000
     18  C          -2.8737  -46.1426    8.6635 C.ar      1 MOL1        0.0000
     19  C          -4.1934  -46.3025    9.1484 C.ar      1 MOL1        0.0000
     20  C          -4.4214  -47.0948   10.4168 C.3       1 MOL1        0.0000
     21  C          -5.2826  -45.7389    8.4364 C.ar      1 MOL1        0.0000
     22  CL         -6.9050  -45.9428    9.0118 Cl        1 MOL1        0.0000
     23  C          -5.0340  -45.0050    7.2491 C.ar      1 MOL1        0.0000
     24  C          -6.1758  -44.3662    6.4856 C.3       1 MOL1        0.0000
     25  C          -3.7162  -44.8717    6.7646 C.ar      1 MOL1        0.0000
     26  CL         -1.2372  -52.9829    7.0303 Cl        1 MOL1        0.0000
     27  H          -3.5909  -51.6994    6.0856 H         1 MOL1        0.0000
     28  H          -3.9674  -49.3971    5.1973 H         1 MOL1        0.0000
     29  H          -2.0864  -47.8164    5.0511 H         1 MOL1        0.0000
     30  H          -0.1302  -46.6598    4.8168 H         1 MOL1        0.0000
     31  H           1.5882  -46.8012    4.6903 H         1 MOL1        0.0000
     32  H           1.0376  -44.9168    6.1530 H         1 MOL1        0.0000
     33  H           1.7899  -46.1465    7.1282 H         1 MOL1        0.0000
     34  H          -0.0338  -45.3645    8.4141 H         1 MOL1        0.0000
     35  H          -0.4930  -46.9558    7.8179 H         1 MOL1        0.0000
     36  H          -2.0618  -46.5755    9.2316 H         1 MOL1        0.0000
     37  H          -5.1478  -46.6091   11.0729 H         1 MOL1        0.0000
     38  H          -4.7955  -48.0883   10.1684 H         1 MOL1        0.0000
     39  H          -3.4946  -47.2165   10.9839 H         1 MOL1        0.0000
     40  H          -5.8060  -43.7551    5.6573 H         1 MOL1        0.0000
     41  H          -6.8417  -45.1281    6.0706 H         1 MOL1        0.0000
     42  H          -6.7594  -43.7154    7.1422 H         1 MOL1        0.0000
     43  H          -3.5302  -44.3248    5.8485 H         1 MOL1        0.0000
@<TRIPOS>BOND
     1      1      2 1 
     2      2      3 2 
     3      2      4 1 
     4      4      5 ar
     5      4     12 ar
     6      5      6 ar
     7      6      7 ar
     8      6     11 ar
     9      7      8 ar
    10      7     26 1 
    11      8      9 ar
    12      9     10 ar
    13     10     11 ar
    14     11     12 ar
    15     12     13 1 
    16     13     14 1 
    17     14     15 1 
    18     15     16 1 
    19     16     17 1 
    20     17     18 ar
    21     17     25 ar
    22     18     19 ar
    23     19     20 1 
    24     19     21 ar
    25     21     22 1 
    26     21     23 ar
    27     23     24 1 
    28     23     25 ar
    29      8     27 1 
    30      9     28 1 
    31     10     29 1 
    32     13     30 1 
    33     13     31 1 
    34     14     32 1 
    35     14     33 1 
    36     15     34 1 
    37     15     35 1 
    38     18     36 1 
    39     20     37 1 
    40     20     38 1 
    41     20     39 1 
    42     24     40 1 
    43     24     41 1 
    44     24     42 1 
    45     25     43 1 
@<TRIPOS>SUBSTRUCTURE
     1 MOL1         1 MOLECULE 1 A  MOL 
# Molecule written by the XED library from Cresset
