@<TRIPOS>MOLECULE
66
    43     46      1
SMALL
USER_CHARGES
@<TRIPOS>ATOM
      1  O           3.5632  -47.8394    5.6651 O.co2     1 MOL1        0.0000
      2  C           3.0547  -48.6446    6.4687 C.2       1 MOL1        0.0000
      3  O           3.7176  -49.0437    7.4483 O.2       1 MOL1        0.0000
      4  C           1.6404  -49.0782    6.2866 C.ar      1 MOL1        0.0000
      5  S           1.2183  -50.6024    7.0271 S.3       1 MOL1        0.0000
      6  C          -0.4520  -50.4734    6.4812 C.ar      1 MOL1        0.0000
      7  C          -1.5140  -51.3853    6.6849 C.ar      1 MOL1        0.0000
      8  C          -2.8051  -51.0838    6.2163 C.ar      1 MOL1        0.0000
      9  C          -3.0350  -49.8729    5.5476 C.ar      1 MOL1        0.0000
     10  C          -1.9701  -48.9821    5.3251 C.ar      1 MOL1        0.0000
     11  C          -0.6468  -49.2498    5.7659 C.ar      1 MOL1        0.0000
     12  C           0.5741  -48.4756    5.6336 C.ar      1 MOL1        0.0000
     13  C           0.6517  -47.1469    4.9149 C.3       1 MOL1        0.0000
     14  C           0.7584  -45.9333    5.8538 C.3       1 MOL1        0.0000
     15  C          -0.2819  -45.9205    6.9846 C.3       1 MOL1        0.0000
     16  O          -1.5969  -45.7351    6.4764 O.3       1 MOL1        0.0000
     17  C          -2.6622  -45.8427    7.3608 C.ar      1 MOL1        0.0000
     18  C          -4.8922  -46.0665    9.1171 C.ar      1 MOL1        0.0000
     19  C          -3.6002  -46.3844    9.5752 C.ar      1 MOL1        0.0000
     20  C          -2.4954  -46.2648    8.7080 C.ar      1 MOL1        0.0000
     21  CL         -1.2466  -52.8788    7.5124 Cl        1 MOL1        0.0000
     22  C          -5.0761  -45.6435    7.7862 C.ar      1 MOL1        0.0000
     23  C          -3.9716  -45.5347    6.9092 C.ar      1 MOL1        0.0000
     24  C          -4.1999  -45.1108    5.5812 C.ar      1 MOL1        0.0000
     25  C          -5.4996  -44.7947    5.1453 C.ar      1 MOL1        0.0000
     26  C          -6.5848  -44.9082    6.0206 C.ar      1 MOL1        0.0000
     27  C          -6.3755  -45.3310    7.3422 C.ar      1 MOL1        0.0000
     28  H          -3.6235  -51.7836    6.3815 H         1 MOL1        0.0000
     29  H          -4.0332  -49.6215    5.1991 H         1 MOL1        0.0000
     30  H          -2.1703  -48.0560    4.8113 H         1 MOL1        0.0000
     31  H          -0.2390  -47.0225    4.3158 H         1 MOL1        0.0000
     32  H           1.4901  -47.1452    4.2148 H         1 MOL1        0.0000
     33  H           0.7050  -45.0106    5.2760 H         1 MOL1        0.0000
     34  H           1.7451  -45.9429    6.3140 H         1 MOL1        0.0000
     35  H          -0.0489  -45.1138    7.6769 H         1 MOL1        0.0000
     36  H          -0.1866  -46.8551    7.5316 H         1 MOL1        0.0000
     37  H          -1.5239  -46.5195    9.1169 H         1 MOL1        0.0000
     38  H          -3.3775  -45.0164    4.8790 H         1 MOL1        0.0000
     39  H          -5.6642  -44.4657    4.1260 H         1 MOL1        0.0000
     40  H          -7.5884  -44.6716    5.6855 H         1 MOL1        0.0000
     41  H          -7.2209  -45.4118    8.0212 H         1 MOL1        0.0000
     42  H          -3.4519  -46.7173   10.5975 H         1 MOL1        0.0000
     43  H          -5.7306  -46.1549    9.7980 H         1 MOL1        0.0000
@<TRIPOS>BOND
     1      1      2 1 
     2      2      3 2 
     3      2      4 1 
     4      4      5 ar
     5      4     12 ar
     6      5      6 ar
     7      6      7 ar
     8      6     11 ar
     9      7      8 ar
    10      7     21 1 
    11      8      9 ar
    12      9     10 ar
    13     10     11 ar
    14     11     12 ar
    15     12     13 1 
    16     13     14 1 
    17     14     15 1 
    18     15     16 1 
    19     16     17 1 
    20     17     20 ar
    21     17     23 ar
    22     18     19 ar
    23     18     22 ar
    24     19     20 ar
    25     22     23 ar
    26     22     27 ar
    27     23     24 ar
    28     24     25 ar
    29     25     26 ar
    30     26     27 ar
    31      8     28 1 
    32      9     29 1 
    33     10     30 1 
    34     13     31 1 
    35     13     32 1 
    36     14     33 1 
    37     14     34 1 
    38     15     35 1 
    39     15     36 1 
    40     18     43 1 
    41     19     42 1 
    42     20     37 1 
    43     24     38 1 
    44     25     39 1 
    45     26     40 1 
    46     27     41 1 
@<TRIPOS>SUBSTRUCTURE
     1 MOL1         1 MOLECULE 1 A  MOL 
# Molecule written by the XED library from Cresset
