@<TRIPOS>MOLECULE
67
    43     45      1
SMALL
USER_CHARGES
@<TRIPOS>ATOM
      1  O           3.5644  -47.8285    6.1892 O.co2     1 MOL1        0.0000
      2  C           3.0362  -48.8080    6.7428 C.2       1 MOL1        0.0000
      3  O           3.6696  -49.4562    7.6245 O.2       1 MOL1        0.0000
      4  C           1.6425  -49.1600    6.4068 C.ar      1 MOL1        0.0000
      5  C          -0.1840  -50.4273    6.5471 C.ar      1 MOL1        0.0000
      6  C          -1.0943  -51.4430    6.8742 C.ar      1 MOL1        0.0000
      7  C          -2.3945  -51.3656    6.3648 C.ar      1 MOL1        0.0000
      8  C          -2.7687  -50.2873    5.5289 C.ar      1 MOL1        0.0000
      9  C          -1.8174  -49.2864    5.2062 C.ar      1 MOL1        0.0000
     10  C          -0.4966  -49.3367    5.7159 C.ar      1 MOL1        0.0000
     11  C           0.6834  -48.5264    5.6415 C.ar      1 MOL1        0.0000
     12  C           0.8055  -47.2137    4.9079 C.3       1 MOL1        0.0000
     13  C           0.8087  -45.9824    5.8366 C.3       1 MOL1        0.0000
     14  C          -0.4323  -45.8572    6.7332 C.3       1 MOL1        0.0000
     15  O          -1.5675  -45.5507    5.9368 O.3       1 MOL1        0.0000
     16  C          -2.8022  -45.4950    6.5528 C.ar      1 MOL1        0.0000
     17  C          -3.0327  -45.8036    7.9119 C.ar      1 MOL1        0.0000
     18  C          -4.3369  -45.7633    8.4552 C.ar      1 MOL1        0.0000
     19  C          -4.5594  -46.1410    9.9070 C.3       1 MOL1        0.0000
     20  C          -5.4287  -45.3910    7.6286 C.ar      1 MOL1        0.0000
     21  CL         -7.0379  -45.3587    8.2748 Cl        1 MOL1        0.0000
     22  C          -5.2055  -45.0557    6.2744 C.ar      1 MOL1        0.0000
     23  C          -6.3500  -44.6517    5.3655 C.3       1 MOL1        0.0000
     24  C          -3.8961  -45.1147    5.7492 C.ar      1 MOL1        0.0000
     25  O           1.1314  -50.3169    6.9579 O.3       1 MOL1        0.0000
     26  H          -0.7929  -52.2665    7.5077 H         1 MOL1        0.0000
     27  H          -3.1325  -52.1281    6.6074 H         1 MOL1        0.0000
     28  H          -3.7691  -50.2255    5.1378 H         1 MOL1        0.0000
     29  H          -2.1044  -48.4656    4.5637 H         1 MOL1        0.0000
     30  H          -0.0274  -47.1393    4.2087 H         1 MOL1        0.0000
     31  H           1.7050  -47.1979    4.3028 H         1 MOL1        0.0000
     32  H           0.9167  -45.0844    5.2419 H         1 MOL1        0.0000
     33  H           1.6917  -46.0260    6.4709 H         1 MOL1        0.0000
     34  H          -0.2792  -45.0497    7.4537 H         1 MOL1        0.0000
     35  H          -0.5700  -46.7817    7.2955 H         1 MOL1        0.0000
     36  H          -2.2274  -46.0944    8.5689 H         1 MOL1        0.0000
     37  H          -5.1508  -45.3838   10.4243 H         1 MOL1        0.0000
     38  H          -5.0939  -47.0887    9.9694 H         1 MOL1        0.0000
     39  H          -3.6172  -46.2594   10.4265 H         1 MOL1        0.0000
     40  H          -5.9980  -44.3903    4.3728 H         1 MOL1        0.0000
     41  H          -7.0611  -45.4708    5.2673 H         1 MOL1        0.0000
     42  H          -6.8728  -43.7882    5.7746 H         1 MOL1        0.0000
     43  H          -3.7237  -44.8700    4.7154 H         1 MOL1        0.0000
@<TRIPOS>BOND
     1      1      2 1 
     2      2      3 2 
     3      2      4 1 
     4      4     11 ar
     5      4     25 ar
     6      5      6 ar
     7      5     10 ar
     8      5     25 ar
     9      6      7 ar
    10      7      8 ar
    11      8      9 ar
    12      9     10 ar
    13     10     11 ar
    14     11     12 1 
    15     12     13 1 
    16     13     14 1 
    17     14     15 1 
    18     15     16 1 
    19     16     17 ar
    20     16     24 ar
    21     17     18 ar
    22     18     19 1 
    23     18     20 ar
    24     20     21 1 
    25     20     22 ar
    26     22     23 1 
    27     22     24 ar
    28      6     26 1 
    29      7     27 1 
    30      8     28 1 
    31      9     29 1 
    32     12     30 1 
    33     12     31 1 
    34     13     32 1 
    35     13     33 1 
    36     14     34 1 
    37     14     35 1 
    38     17     36 1 
    39     19     37 1 
    40     19     38 1 
    41     19     39 1 
    42     23     40 1 
    43     23     41 1 
    44     23     42 1 
    45     24     43 1 
@<TRIPOS>SUBSTRUCTURE
     1 MOL1         1 MOLECULE 1 A  MOL 
# Molecule written by the XED library from Cresset
