@<TRIPOS>MOLECULE
68
    43     46      1
SMALL
USER_CHARGES
@<TRIPOS>ATOM
      1  O           3.7726  -49.6838    6.9455 O.co2     1 MOL1        0.0000
      2  C           2.9100  -48.7925    6.7501 C.2       1 MOL1        0.0000
      3  O           3.2295  -47.5839    6.7163 O.2       1 MOL1        0.0000
      4  C           1.4913  -49.1838    6.5587 C.ar      1 MOL1        0.0000
      5  C          -0.1868  -50.6387    6.5133 C.ar      1 MOL1        0.0000
      6  C          -0.9631  -51.8099    6.5963 C.ar      1 MOL1        0.0000
      7  C          -2.3546  -51.7196    6.4061 C.ar      1 MOL1        0.0000
      8  C          -2.9393  -50.4632    6.1302 C.ar      1 MOL1        0.0000
      9  C          -2.1382  -49.2957    6.0374 C.ar      1 MOL1        0.0000
     10  C          -0.7392  -49.3608    6.2408 C.ar      1 MOL1        0.0000
     11  C           0.3626  -48.4393    6.2579 C.ar      1 MOL1        0.0000
     12  C           0.2858  -46.9624    5.9975 C.3       1 MOL1        0.0000
     13  C           0.3099  -46.1147    7.2841 C.3       1 MOL1        0.0000
     14  C          -0.9470  -46.2726    8.1526 C.3       1 MOL1        0.0000
     15  O          -2.0339  -45.7606    7.3984 O.3       1 MOL1        0.0000
     16  C          -3.2649  -45.6384    8.0063 C.ar      1 MOL1        0.0000
     17  C          -5.8320  -45.2982    9.1520 C.ar      1 MOL1        0.0000
     18  C          -4.8424  -46.0260    9.8383 C.ar      1 MOL1        0.0000
     19  C          -3.5646  -46.1963    9.2720 C.ar      1 MOL1        0.0000
     20  CL         -4.6522  -50.3570    5.9185 Cl        1 MOL1        0.0000
     21  C          -5.5501  -44.7469    7.8897 C.ar      1 MOL1        0.0000
     22  C          -4.2682  -44.9219    7.3124 C.ar      1 MOL1        0.0000
     23  C          -4.0002  -44.3707    6.0384 C.ar      1 MOL1        0.0000
     24  C          -4.9987  -43.6492    5.3557 C.ar      1 MOL1        0.0000
     25  C          -6.2700  -43.4716    5.9396 C.ar      1 MOL1        0.0000
     26  C          -6.5447  -44.0200    7.2054 C.ar      1 MOL1        0.0000
     27  O           1.1760  -50.5215    6.6916 O.3       1 MOL1        0.0000
     28  H          -0.4810  -52.7477    6.8125 H         1 MOL1        0.0000
     29  H          -2.9631  -52.6053    6.4682 H         1 MOL1        0.0000
     30  H          -2.6129  -48.3489    5.8313 H         1 MOL1        0.0000
     31  H          -0.6031  -46.7219    5.4163 H         1 MOL1        0.0000
     32  H           1.1268  -46.6655    5.3667 H         1 MOL1        0.0000
     33  H           0.4122  -45.0603    7.0052 H         1 MOL1        0.0000
     34  H           1.1933  -46.3513    7.8811 H         1 MOL1        0.0000
     35  H          -0.8331  -45.6974    9.0727 H         1 MOL1        0.0000
     36  H          -1.1059  -47.3195    8.4132 H         1 MOL1        0.0000
     37  H          -2.8349  -46.7583    9.8317 H         1 MOL1        0.0000
     38  H          -3.0325  -44.4979    5.5704 H         1 MOL1        0.0000
     39  H          -4.7838  -43.2318    4.3761 H         1 MOL1        0.0000
     40  H          -7.0328  -42.9142    5.4103 H         1 MOL1        0.0000
     41  H          -7.5187  -43.8845    7.6476 H         1 MOL1        0.0000
     42  H          -5.0576  -46.4517   10.8107 H         1 MOL1        0.0000
     43  H          -6.8040  -45.1697    9.6054 H         1 MOL1        0.0000
@<TRIPOS>BOND
     1      1      2 1 
     2      2      3 2 
     3      2      4 1 
     4      4     11 ar
     5      4     27 ar
     6      5      6 ar
     7      5     10 ar
     8      5     27 ar
     9      6      7 ar
    10      7      8 ar
    11      8      9 ar
    12      8     20 1 
    13      9     10 ar
    14     10     11 ar
    15     11     12 1 
    16     12     13 1 
    17     13     14 1 
    18     14     15 1 
    19     15     16 1 
    20     16     19 ar
    21     16     22 ar
    22     17     18 ar
    23     17     21 ar
    24     18     19 ar
    25     21     22 ar
    26     21     26 ar
    27     22     23 ar
    28     23     24 ar
    29     24     25 ar
    30     25     26 ar
    31      6     28 1 
    32      7     29 1 
    33      9     30 1 
    34     12     31 1 
    35     12     32 1 
    36     13     33 1 
    37     13     34 1 
    38     14     35 1 
    39     14     36 1 
    40     17     43 1 
    41     18     42 1 
    42     19     37 1 
    43     23     38 1 
    44     24     39 1 
    45     25     40 1 
    46     26     41 1 
@<TRIPOS>SUBSTRUCTURE
     1 MOL1         1 MOLECULE 1 A  MOL 
# Molecule written by the XED library from Cresset
