wibble;CAT-13a_mk1
  xed2sdf           3D
 
 46 49  0  0  1  0  0  0  0  0999 V2000
   11.7066   -2.3243    1.1522 C   0  0  0  0  0  0  0  0  0  0  0  0
   13.0800   -2.5317    0.6754 N   0  0  0  0  0  0  0  0  0  0  0  0
   14.2034   -2.4301    1.3983 C   0  0  0  0  0  0  0  0  0  0  0  0
   14.2886   -2.2311    2.7108 N   0  0  0  0  0  0  0  0  0  0  0  0
   15.2911   -2.5895    0.6543 N   0  3  0  0  0  0  0  0  0  0  0  0
   14.9789   -2.9821   -0.7080 C   0  0  0  0  0  0  0  0  0  0  0  0
   15.4754   -4.4511   -0.8097 C   0  0  0  0  0  0  0  0  0  0  0  0
   15.0159   -5.2708   -1.9954 C   0  0  0  0  0  0  0  0  0  0  0  0
   16.0514   -5.9027   -2.8811 C   0  0  0  0  0  0  0  0  0  0  0  0
   15.1860   -6.7771   -2.0216 C   0  0  0  0  0  0  0  0  0  0  0  0
   15.5532   -1.9672   -1.7162 C   0  0  0  0  0  0  0  0  0  0  0  0
   16.2219   -2.3572   -2.8994 C   0  0  0  0  0  0  0  0  0  0  0  0
   16.6507   -1.3904   -3.8245 C   0  0  0  0  0  0  0  0  0  0  0  0
   16.4179   -0.0251   -3.5806 C   0  0  0  0  0  0  0  0  0  0  0  0
   15.8037    0.4089   -2.3876 C   0  0  0  0  0  0  0  0  0  0  0  0
   15.5510    1.8451   -2.1204 C   0  0  0  0  0  0  0  0  0  0  0  0
   15.2562    2.7420   -3.1736 C   0  0  0  0  0  0  0  0  0  0  0  0
   14.9250    4.0879   -2.9144 C   0  0  0  0  0  0  0  0  0  0  0  0
   14.8974    4.5661   -1.5934 C   0  0  0  0  0  0  0  0  0  0  0  0
   15.2242    3.7028   -0.5356 C   0  0  0  0  0  0  0  0  0  0  0  0
   15.2032    4.2948    1.0849 Cl  0  0  0  0  0  0  0  0  0  0  0  0
   15.5515    2.3585   -0.8014 C   0  0  0  0  0  0  0  0  0  0  0  0
   15.3871   -0.5807   -1.4698 C   0  0  0  0  0  0  0  0  0  0  0  0
   13.4407   -2.8723   -0.6618 C   0  0  0  0  0  0  0  0  0  0  0  0
   12.6320   -3.0299   -1.5816 O   0  0  0  0  0  0  0  0  0  0  0  0
   11.6045   -2.6345    2.1919 H   0  0  0  0  0  0  0  0  0  0  0  0
   11.4528   -1.2670    1.0806 H   0  0  0  0  0  0  0  0  0  0  0  0
   10.9882   -2.8880    0.5564 H   0  0  0  0  0  0  0  0  0  0  0  0
   13.5001   -2.0136    3.3166 H   0  0  0  0  0  0  0  0  0  0  0  0
   16.2490   -2.5893    1.0094 H   0  0  0  0  0  0  0  0  0  0  0  0
   15.1583   -4.9961    0.0813 H   0  0  0  0  0  0  0  0  0  0  0  0
   16.5650   -4.4616   -0.7696 H   0  0  0  0  0  0  0  0  0  0  0  0
   14.1142   -4.9159   -2.4837 H   0  0  0  0  0  0  0  0  0  0  0  0
   15.8387   -5.7722   -3.9334 H   0  0  0  0  0  0  0  0  0  0  0  0
   17.0974   -5.8246   -2.6005 H   0  0  0  0  0  0  0  0  0  0  0  0
   15.6529   -7.2541   -1.1618 H   0  0  0  0  0  0  0  0  0  0  0  0
   14.4212   -7.3678   -2.5220 H   0  0  0  0  0  0  0  0  0  0  0  0
   16.4112   -3.3885   -3.1398 H   0  0  0  0  0  0  0  0  0  0  0  0
   17.1458   -1.6957   -4.7368 H   0  0  0  0  0  0  0  0  0  0  0  0
   16.7204    0.6932   -4.3262 H   0  0  0  0  0  0  0  0  0  0  0  0
   15.2353    2.3868   -4.1937 H   0  0  0  0  0  0  0  0  0  0  0  0
   14.6630    4.7530   -3.7239 H   0  0  0  0  0  0  0  0  0  0  0  0
   14.6225    5.5912   -1.3891 H   0  0  0  0  0  0  0  0  0  0  0  0
   15.7971    1.7149    0.0269 H   0  0  0  0  0  0  0  0  0  0  0  0
   14.8794   -0.2617   -0.5736 H   0  0  0  0  0  0  0  0  0  0  0  0
   15.2059   -2.2088    3.1539 H   0  0  0  0  0  0  0  0  0  0  0  0
  1  2  1  0
  2  3  1  0
  2 24  1  0
  3  4  1  0
  3  5  2  0
  5  6  1  0
  6  7  1  0
  6 11  1  0
  6 24  1  0
  7  8  1  0
  8  9  1  0
  8 10  1  0
  9 10  1  0
 11 12  2  0
 11 23  1  0
 12 13  1  0
 13 14  2  0
 14 15  1  0
 15 16  1  0
 15 23  2  0
 16 17  2  0
 16 22  1  0
 17 18  1  0
 18 19  2  0
 19 20  1  0
 20 21  1  0
 20 22  2  0
 24 25  2  0
  1 26  1  0
  1 27  1  0
  1 28  1  0
  4 29  1  0
  4 46  1  0
  5 30  1  0
  7 31  1  0
  7 32  1  0
  8 33  1  0
  9 34  1  0
  9 35  1  0
 10 36  1  0
 10 37  1  0
 12 38  1  0
 13 39  1  0
 14 40  1  0
 17 41  1  0
 18 42  1  0
 19 43  1  0
 22 44  1  0
 23 45  1  0
M  CHG  1   5   1
M  END
>  <r_user_dG.exp>


>  <Favorite_cresset>
false

>  <MW_cresset>
354.9

>  <#Atoms_cresset>
25

>  <SlogP_cresset>
3.8

>  <TPSA_cresset>
58.1

>  <Flexibility_cresset>
2.2

>  <Rof5_cresset>
0

>  <Confs_cresset>
0

>  <Poses_cresset>
0

$$$$
mk1;CAT-13f_CAT-13d_CAT-13o_CAT-13a_CAT-13g_CAT-13e_mk2_mk3_wibble
  xed2sdf           3D
 
 36 38  0  0  1  0  0  0  0  0999 V2000
   11.8131   -2.0987    1.0830 C   0  0  0  0  0  0  0  0  0  0  0  0
   13.1333   -2.4685    0.5574 N   0  0  0  0  0  0  0  0  0  0  0  0
   14.2852   -2.5313    1.2456 C   0  0  0  0  0  0  0  0  0  0  0  0
   14.4325   -2.3247    2.5605 N   0  0  0  0  0  0  0  0  0  0  0  0
   15.3128   -2.8535    0.4545 N   0  3  0  0  0  0  0  0  0  0  0  0
   14.9091   -3.0355   -0.9381 C   0  0  0  0  0  0  0  0  0  0  0  0
   15.5119   -1.9635   -1.8622 C   0  0  0  0  0  0  0  0  0  0  0  0
   16.1762   -2.3128   -3.0621 C   0  0  0  0  0  0  0  0  0  0  0  0
   16.6331   -1.3123   -3.9325 C   0  0  0  0  0  0  0  0  0  0  0  0
   16.4138    0.0423   -3.6289 C   0  0  0  0  0  0  0  0  0  0  0  0
   15.7986    0.4335   -2.4212 C   0  0  0  0  0  0  0  0  0  0  0  0
   15.5499    1.8627   -2.1169 C   0  0  0  0  0  0  0  0  0  0  0  0
   15.2539    2.7805   -3.1518 C   0  0  0  0  0  0  0  0  0  0  0  0
   14.9337    4.1235   -2.8692 C   0  0  0  0  0  0  0  0  0  0  0  0
   14.9159    4.5776   -1.5397 C   0  0  0  0  0  0  0  0  0  0  0  0
   15.2415    3.6932   -0.4988 C   0  0  0  0  0  0  0  0  0  0  0  0
   15.2368    4.2623    1.1299 Cl  0  0  0  0  0  0  0  0  0  0  0  0
   15.5569    2.3503   -0.7887 C   0  0  0  0  0  0  0  0  0  0  0  0
   15.3759   -0.5881   -1.5399 C   0  0  0  0  0  0  0  0  0  0  0  0
   13.3951   -2.8049   -0.8053 C   0  0  0  0  0  0  0  0  0  0  0  0
   12.5342   -2.8850   -1.6872 O   0  0  0  0  0  0  0  0  0  0  0  0
   15.1891   -4.4888   -1.3782 H   0  0  0  0  0  0  0  0  0  0  0  0
   11.6714   -1.0232    0.9797 H   0  0  0  0  0  0  0  0  0  0  0  0
   11.0132   -2.6016    0.5387 H   0  0  0  0  0  0  0  0  0  0  0  0
   11.7238   -2.3619    2.1367 H   0  0  0  0  0  0  0  0  0  0  0  0
   15.3678   -2.3767    2.9680 H   0  0  0  0  0  0  0  0  0  0  0  0
   16.3362   -3.3388   -3.3593 H   0  0  0  0  0  0  0  0  0  0  0  0
   17.1290   -1.5869   -4.8534 H   0  0  0  0  0  0  0  0  0  0  0  0
   16.7243    0.7864   -4.3450 H   0  0  0  0  0  0  0  0  0  0  0  0
   15.2246    2.4443   -4.1780 H   0  0  0  0  0  0  0  0  0  0  0  0
   14.6756    4.8037   -3.6678 H   0  0  0  0  0  0  0  0  0  0  0  0
   14.6511    5.6013   -1.3159 H   0  0  0  0  0  0  0  0  0  0  0  0
   15.8012    1.6883    0.0253 H   0  0  0  0  0  0  0  0  0  0  0  0
   14.8782   -0.3032   -0.6255 H   0  0  0  0  0  0  0  0  0  0  0  0
   13.6878   -2.0198    3.1842 H   0  0  0  0  0  0  0  0  0  0  0  0
   16.2530   -2.9562    0.7787 H   0  0  0  0  0  0  0  0  0  0  0  0
  2  1  1  0
  3  2  1  0
  4  3  1  0
  5  3  2  0
  6  5  1  0
  7  6  1  0
  8  7  2  0
  9  8  1  0
 10  9  2  0
 11 10  1  0
 12 11  1  0
 13 12  2  0
 14 13  1  0
 15 14  2  0
 16 15  1  0
 17 16  1  0
 18 12  1  0
 18 16  2  0
 19  7  1  0
 19 11  2  0
 20  2  1  0
 20  6  1  0
 21 20  2  0
  5 36  1  0
 22  6  1  0
 23  1  1  0
 24  1  1  0
 25  1  1  0
 26  4  1  0
 27  8  1  0
 28  9  1  0
 29 10  1  0
 30 13  1  0
 31 14  1  0
 32 15  1  0
 33 18  1  0
 34 19  1  0
 35  4  1  0
M  CHG  1   5   1
M  END
>  <Favorite_cresset>
false

>  <MW_cresset>
300.8

>  <#Atoms_cresset>
21

>  <SlogP_cresset>
2.9

>  <TPSA_cresset>
58.1

>  <Flexibility_cresset>
0.2

>  <Rof5_cresset>
0

>  <Confs_cresset>
0

>  <Poses_cresset>
0

>  <_cresset_fieldpoints2>
 2
    -5      12.778589      -2.907312      -3.423419    -19.1774
    -5      10.887730      -2.586122      -2.238288    -17.4838
    -5      18.710274      -0.281369      -1.741717     -2.4469
    -5      14.826747       6.852122       1.395476     -1.2715
    -5      18.103947       3.757440      -2.049685     -2.8546
    -6      17.240730      -2.750972       2.411847     10.1665
    -6      14.882587      -1.728239       4.863920      7.4925
    -6      12.183765      -1.064539       3.975647      7.1112
    -6      17.361237      -4.454892       0.341768      7.5329
    -6      16.341619       2.088721      -5.941290      4.0949
    -6      14.129348       7.021192      -3.158115      3.0360
    -7      13.172586      -5.239107       0.964678     -1.9035
    -7       8.871546      -0.991911       1.858307     -0.6365
    -7      18.607809      -0.569106      -0.851662     -2.1283
    -7      15.978325      -0.176072       1.614332     -2.9907
    -7      16.729610      -4.108201      -5.879248     -1.0061
    -7      18.212875       0.158454      -0.128034     -2.1277
    -7      13.870958       7.343289      -3.213538     -0.9826
    -7      18.797058       2.159059      -2.100572     -1.9882
    -7      14.069885       0.372403       1.494524     -3.2628
    -7      18.656250       2.658830      -2.637079     -2.0324
    -7      12.519505       0.668663      -0.850336     -2.9234
    -7      12.580784      -0.848079      -3.141967     -2.5975
    -8      11.053146      -1.861906       1.400227      2.5190
    -8      15.980359      -0.940359      -2.739028      6.9188
    -8      15.238544       3.771290      -0.271036      5.5023
    -8      15.775061       1.321043      -3.027213      5.5443
    -8      15.530629       0.972070      -1.524049      5.5201
    -8      15.242836       3.220867      -1.824069      6.9395

$$$$
mk2;CAT-13f_CAT-13g_CAT-4p_CAT-17h_CAT-13e_mk1_mk3
  xed2sdf           3D
 
 35 37  0  0  1  0  0  0  0  0999 V2000
   11.8131   -2.0987    1.0831 C   0  0  0  0  0  0  0  0  0  0  0  0
   13.1333   -2.4684    0.5574 N   0  0  0  0  0  0  0  0  0  0  0  0
   14.2852   -2.5314    1.2456 C   0  0  0  0  0  0  0  0  0  0  0  0
   14.4325   -2.3247    2.5605 N   0  0  0  0  0  0  0  0  0  0  0  0
   15.3128   -2.8536    0.4545 N   0  3  0  0  0  0  0  0  0  0  0  0
   14.9090   -3.0354   -0.9381 C   0  0  0  0  0  0  0  0  0  0  0  0
   15.5120   -1.9635   -1.8621 C   0  0  0  0  0  0  0  0  0  0  0  0
   16.1761   -2.3128   -3.0621 C   0  0  0  0  0  0  0  0  0  0  0  0
   16.6331   -1.3123   -3.9325 C   0  0  0  0  0  0  0  0  0  0  0  0
   16.4137    0.0423   -3.6289 C   0  0  0  0  0  0  0  0  0  0  0  0
   15.7987    0.4336   -2.4212 C   0  0  0  0  0  0  0  0  0  0  0  0
   15.5498    1.8628   -2.1170 C   0  0  0  0  0  0  0  0  0  0  0  0
   15.2538    2.7806   -3.1517 C   0  0  0  0  0  0  0  0  0  0  0  0
   14.9337    4.1235   -2.8692 N   0  0  0  0  0  0  0  0  0  0  0  0
   14.9158    4.5775   -1.5397 C   0  0  0  0  0  0  0  0  0  0  0  0
   15.2415    3.6932   -0.4988 C   0  0  0  0  0  0  0  0  0  0  0  0
   15.2368    4.2623    1.1299 Cl  0  0  0  0  0  0  0  0  0  0  0  0
   15.5569    2.3503   -0.7887 C   0  0  0  0  0  0  0  0  0  0  0  0
   15.3759   -0.5880   -1.5399 C   0  0  0  0  0  0  0  0  0  0  0  0
   13.3951   -2.8049   -0.8053 C   0  0  0  0  0  0  0  0  0  0  0  0
   12.5343   -2.8851   -1.6873 O   0  0  0  0  0  0  0  0  0  0  0  0
   15.1891   -4.4888   -1.3782 H   0  0  0  0  0  0  0  0  0  0  0  0
   11.6714   -1.0233    0.9797 H   0  0  0  0  0  0  0  0  0  0  0  0
   11.0131   -2.6016    0.5387 H   0  0  0  0  0  0  0  0  0  0  0  0
   11.7238   -2.3619    2.1367 H   0  0  0  0  0  0  0  0  0  0  0  0
   15.3678   -2.3767    2.9680 H   0  0  0  0  0  0  0  0  0  0  0  0
   16.3362   -3.3388   -3.3593 H   0  0  0  0  0  0  0  0  0  0  0  0
   17.1290   -1.5869   -4.8535 H   0  0  0  0  0  0  0  0  0  0  0  0
   16.7244    0.7863   -4.3450 H   0  0  0  0  0  0  0  0  0  0  0  0
   15.2246    2.4443   -4.1780 H   0  0  0  0  0  0  0  0  0  0  0  0
   14.6511    5.6013   -1.3159 H   0  0  0  0  0  0  0  0  0  0  0  0
   15.8011    1.6884    0.0253 H   0  0  0  0  0  0  0  0  0  0  0  0
   14.8782   -0.3032   -0.6256 H   0  0  0  0  0  0  0  0  0  0  0  0
   13.6879   -2.0198    3.1841 H   0  0  0  0  0  0  0  0  0  0  0  0
   16.2530   -2.9563    0.7788 H   0  0  0  0  0  0  0  0  0  0  0  0
  2  1  1  0
  3  2  1  0
  4  3  1  0
  5  3  2  0
  6  5  1  0
  7  6  1  0
  8  7  2  0
  9  8  1  0
 10  9  2  0
 11 10  1  0
 12 11  1  0
 13 12  2  0
 14 13  1  0
 15 14  2  0
 16 15  1  0
 17 16  1  0
 18 12  1  0
 18 16  2  0
 19  7  1  0
 19 11  2  0
 20  2  1  0
 20  6  1  0
 21 20  2  0
  5 35  1  0
 22  6  1  0
 23  1  1  0
 24  1  1  0
 25  1  1  0
 26  4  1  0
 27  8  1  0
 28  9  1  0
 29 10  1  0
 30 13  1  0
 31 15  1  0
 32 18  1  0
 33 19  1  0
 34  4  1  0
M  CHG  1   5   1
M  END
>  <Favorite_cresset>
false

>  <MW_cresset>
301.8

>  <#Atoms_cresset>
21

>  <SlogP_cresset>
2.3

>  <TPSA_cresset>
71

>  <Flexibility_cresset>
0.2

>  <Rof5_cresset>
0

>  <Confs_cresset>
0

>  <Poses_cresset>
0

>  <_cresset_fieldpoints2>
 2
    -5      12.767265      -2.936911      -3.423934    -18.9785
    -5      10.882414      -2.618959      -2.244761    -17.3466
    -5      14.476950       5.308870      -4.301400    -10.4869
    -5      18.784348      -0.566003      -1.841146     -1.7980
    -6      12.233784      -0.915610       3.870077      7.2929
    -6      17.250135      -2.635427       2.385708     10.3929
    -6      14.899023      -1.641286       4.832502      7.6582
    -6      17.386353      -4.424379       0.303772      7.6925
    -6      16.284191       1.963339      -5.942429      4.0976
    -6      14.226629       7.343080      -0.427651      2.3578
    -7       8.871305      -0.994283       1.858506     -0.6364
    -7      13.166121      -5.237106       0.967625     -1.9034
    -7      17.139778      -4.152641      -5.745441     -1.0064
    -7      18.613701      -0.599472      -0.864037     -2.1216
    -7      15.987017      -0.179872       1.612442     -2.9841
    -7      18.437817       0.001391      -0.514091     -2.1102
    -7      18.448517       3.761890       0.235237     -1.3764
    -7      14.072647       0.368466       1.496410     -3.2487
    -7      12.649771      -0.969481      -3.286124     -2.5763
    -7      12.493994       0.597736      -0.901894     -2.8453
    -8      11.057812      -1.868646       1.399636      2.5188
    -8      15.982246      -0.942399      -2.738484      6.9147
    -8      15.532411       0.948742      -1.518416      5.4803
    -8      15.265058       3.711551      -0.147869      5.3289
    -8      15.351165       2.877382      -1.465898      5.3191
    -8      15.799185       1.243002      -3.023712      5.4413

$$$$
mk3;CAT-13m_CAT-13n_CAT-13k_CAT-4p_CAT-4b_CAT-4d_CAT-4a_CAT-13j_CAT-4i_m
  xed2sdf           3D
 
 46 49  0  0  1  0  0  0  0  0999 V2000
   11.7149   -2.1703    1.1860 C   0  0  0  0  0  0  0  0  0  0  0  0
   13.0472   -2.4712    0.6536 N   0  0  0  0  0  0  0  0  0  0  0  0
   14.2073   -2.4898    1.3303 C   0  0  0  0  0  0  0  0  0  0  0  0
   14.3600   -2.2951    2.6436 N   0  0  0  0  0  0  0  0  0  0  0  0
   15.2416   -2.7547    0.5321 N   0  3  0  0  0  0  0  0  0  0  0  0
   14.8171   -3.0611   -0.8292 C   0  0  0  0  0  0  0  0  0  0  0  0
   15.0769   -4.5788   -1.0200 C   0  0  0  0  0  0  0  0  0  0  0  0
   14.2713   -5.5613   -0.3782 C   0  0  0  0  0  0  0  0  0  0  0  0
   14.5685   -6.9356   -0.4681 C   0  0  0  0  0  0  0  0  0  0  0  0
   15.6910   -7.3653   -1.1928 C   0  0  0  0  0  0  0  0  0  0  0  0
   16.5199   -6.4110   -1.8044 C   0  0  0  0  0  0  0  0  0  0  0  0
   16.2187   -5.0421   -1.7029 C   0  0  0  0  0  0  0  0  0  0  0  0
   15.3779   -2.0328   -1.8475 C   0  0  0  0  0  0  0  0  0  0  0  0
   15.7357   -2.3800   -3.1722 C   0  0  0  0  0  0  0  0  0  0  0  0
   16.2339   -1.4073   -4.0510 C   0  0  0  0  0  0  0  0  0  0  0  0
   16.2513   -0.0546   -3.6768 C   0  0  0  0  0  0  0  0  0  0  0  0
   15.7990    0.3581   -2.4048 C   0  0  0  0  0  0  0  0  0  0  0  0
   15.6221    1.8005   -2.0869 C   0  0  0  0  0  0  0  0  0  0  0  0
   15.3734    2.7533   -3.1056 C   0  0  0  0  0  0  0  0  0  0  0  0
   15.0849    4.0532   -2.8896 C   0  0  0  0  0  0  0  0  0  0  0  0
   15.0308    4.4848   -1.6167 C   0  0  0  0  0  0  0  0  0  0  0  0
   15.2978    3.6534   -0.5188 C   0  0  0  0  0  0  0  0  0  0  0  0
   15.2309    4.2779    1.0891 Cl  0  0  0  0  0  0  0  0  0  0  0  0
   15.6053    2.3015   -0.7646 C   0  0  0  0  0  0  0  0  0  0  0  0
   15.4327   -0.6575   -1.4875 C   0  0  0  0  0  0  0  0  0  0  0  0
   13.3072   -2.7857   -0.7105 C   0  0  0  0  0  0  0  0  0  0  0  0
   12.4452   -2.8374   -1.5962 O   0  0  0  0  0  0  0  0  0  0  0  0
   11.5254   -1.1038    1.0826 H   0  0  0  0  0  0  0  0  0  0  0  0
   10.9387   -2.7032    0.6371 H   0  0  0  0  0  0  0  0  0  0  0  0
   11.6394   -2.4492    2.2395 H   0  0  0  0  0  0  0  0  0  0  0  0
   15.2989   -2.3284    3.0413 H   0  0  0  0  0  0  0  0  0  0  0  0
   16.2147   -2.8175    0.8299 H   0  0  0  0  0  0  0  0  0  0  0  0
   13.4192   -5.2899    0.2243 H   0  0  0  0  0  0  0  0  0  0  0  0
   13.9459   -7.6597    0.0348 H   0  0  0  0  0  0  0  0  0  0  0  0
   15.9302   -8.4166   -1.2497 H   0  0  0  0  0  0  0  0  0  0  0  0
   17.4132   -6.7099   -2.3269 H   0  0  0  0  0  0  0  0  0  0  0  0
   16.9004   -4.3391   -2.1394 H   0  0  0  0  0  0  0  0  0  0  0  0
   15.6492   -3.3892   -3.5498 H   0  0  0  0  0  0  0  0  0  0  0  0
   16.5692   -1.6944   -5.0379 H   0  0  0  0  0  0  0  0  0  0  0  0
   16.5827    0.6668   -4.4089 H   0  0  0  0  0  0  0  0  0  0  0  0
   15.3362    2.4537   -4.1432 H   0  0  0  0  0  0  0  0  0  0  0  0
   14.7752    5.5227   -1.4712 H   0  0  0  0  0  0  0  0  0  0  0  0
   15.8106    1.6512    0.0680 H   0  0  0  0  0  0  0  0  0  0  0  0
   15.0959   -0.3619   -0.5079 H   0  0  0  0  0  0  0  0  0  0  0  0
   13.6148   -2.0122    3.2793 H   0  0  0  0  0  0  0  0  0  0  0  0
   14.8978    4.6727   -3.6519 H   0  0  0  0  0  0  0  0  0  0  0  0
  1  2  1  0
  2  3  1  0
  2 26  1  0
  3  4  1  0
  3  5  2  0
  5  6  1  0
  6  7  1  0
  6 13  1  0
  6 26  1  0
  7  8  2  0
  7 12  1  0
  8  9  1  0
  9 10  2  0
 10 11  1  0
 11 12  2  0
 13 14  2  0
 13 25  1  0
 14 15  1  0
 15 16  2  0
 16 17  1  0
 17 18  1  0
 17 25  2  0
 18 19  2  0
 18 24  1  0
 19 20  1  0
 20 21  2  0
 21 22  1  0
 22 23  1  0
 22 24  2  0
 26 27  2  0
  1 28  1  0
  1 29  1  0
  1 30  1  0
  4 31  1  0
  4 45  1  0
  5 32  1  0
  8 33  1  0
  9 34  1  0
 10 35  1  0
 11 36  1  0
 12 37  1  0
 14 38  1  0
 15 39  1  0
 16 40  1  0
 19 41  1  0
 20 46  1  0
 21 42  1  0
 24 43  1  0
 25 44  1  0
M  CHG  1   5   1
M  END
>  <r_user_dG.exp>


>  <Favorite_cresset>
false

>  <MW_cresset>
376.9

>  <#Atoms_cresset>
27

>  <SlogP_cresset>
4.1

>  <TPSA_cresset>
58.1

>  <Flexibility_cresset>
0.2

>  <Rof5_cresset>
0

>  <Confs_cresset>
0

>  <Poses_cresset>
0

>  <_cresset_fieldpoints2>
 2
    -5      12.638306      -3.114576      -3.307747    -19.7778
    -5      17.043282      -6.450914       1.277310     -1.8616
    -5      18.218647       3.671755      -1.979450     -2.7384
    -5      18.721861      -0.667786      -2.123720     -2.0681
    -5      14.725667       6.853571       1.221263     -1.3091
    -6      12.057998      -1.177585       4.098746      7.2136
    -6      17.162334      -2.166000       2.361788     10.3302
    -6      14.822437      -1.676340       4.936440      7.5596
    -6      14.544896      -9.971207       0.004020      2.5420
    -6      18.042709      -4.436677      -3.996215      3.6183
    -6      16.300541       2.037914      -5.949935      4.3423
    -6      14.364780       6.979216      -3.175237      3.0965
    -7      13.166977      -4.803388       2.664552     -2.4783
    -7      11.156084      -4.812509      -0.989335     -2.2160
    -7      15.864704      -4.834332       2.352290     -2.6191
    -7      13.007208      -4.287419      -3.502651     -2.7825
    -7      15.990749      -0.175984       1.710678     -2.9904
    -7      18.247520      -9.285488      -2.359584     -0.9709
    -7      14.526636     -10.292814       0.095318     -0.9723
    -7      17.779892      -4.571256      -4.597168     -1.8932
    -7      18.765305       2.301170      -2.771724     -1.9618
    -7      18.351955      -2.588920      -0.774897     -2.6541
    -7      18.571262       3.431058      -2.084389     -1.9663
    -7      14.097527       7.271851      -3.337740     -0.9927
    -7      12.598980       0.467411      -0.716291     -3.0965
    -7      13.834118       0.401347       1.336462     -3.3001
    -7      18.896280       1.457804      -1.785777     -1.8993
    -8      10.949154      -1.981069       1.509893      2.5218
    -8      15.392795      -5.976082      -1.094808      6.9023
    -8      15.502125      -3.461804      -1.850734      5.4473
    -8      15.799030      -1.023210      -2.769593      6.9347
    -8      15.333604       3.163278      -1.825670      7.0945
    -8      15.283930       3.734930      -0.320327      5.5076
    -8      15.771339       1.266271      -3.023486      5.5473
    -8      15.572954       0.909335      -1.491241      5.4866

$$$$
