@<TRIPOS>MOLECULE
20
    49     52      1
SMALL
USER_CHARGES
@<TRIPOS>ATOM
      1  C           1.3901   29.1077    6.7935 C.ar      1 MOL1        0.0000
      2  C          -1.6911   31.9130    8.0794 C.ar      1 MOL1        0.0000
      3  C          -0.7437   26.3748    8.8319 C.3       1 MOL1        0.0000
      4  C          -1.3142   25.5567    9.9914 C.3       1 MOL1        0.0000
      5  C          -1.1214   24.0589    9.6854 C.3       1 MOL1        0.0000
      6  C          -1.5824   23.1795   10.8502 C.3       1 MOL1        0.0000
      7  C          -0.8551   23.5463   12.1491 C.3       1 MOL1        0.0000
      8  C          -1.0780   25.0277   12.4857 C.3       1 MOL1        0.0000
      9  C          -0.6321   25.9351   11.3273 C.3       1 MOL1        0.0000
     10  C           4.6903   25.7129    5.8380 C.ar      1 MOL1        0.0000
     11  C           4.6667   25.1395    7.1233 C.ar      1 MOL1        0.0000
     12  C           3.9496   25.7658    8.1576 C.ar      1 MOL1        0.0000
     13  C           3.2460   26.9556    7.8985 C.ar      1 MOL1        0.0000
     14  N           0.6302   28.2313    7.4508 N.ar      1 MOL1        0.0000
     15  C          -0.4898   28.6252    8.0923 C.ar      1 MOL1        0.0000
     16  O          -1.1796   27.7315    8.8832 O.3       1 MOL1        0.0000
     17  C          -0.8660   29.9818    8.0000 C.ar      1 MOL1        0.0000
     18  N          -1.9251   30.7129    8.5212 N.ar      1 MOL1        0.0000
     19  N          -0.5542   32.0464    7.3306 N.pl3     1 MOL1        0.0000
     20  C          -0.0249   30.7863    7.2610 C.ar      1 MOL1        0.0000
     21  N           1.1172   30.4049    6.6113 N.ar      1 MOL1        0.0000
     22  N           2.5827   28.6807    6.3360 N.pl3     1 MOL1        0.0000
     23  C           3.2365   27.5251    6.6032 C.ar      1 MOL1        0.0000
     24  C           3.9871   26.9068    5.5819 C.ar      1 MOL1        0.0000
     25  C           5.4871   25.0499    4.7235 C.3       1 MOL1        0.0000
     26  O           4.9612   23.7541    4.5433 O.3       1 MOL1        0.0000
     27  H          -2.3542   32.7337    8.2866 H         1 MOL1        0.0000
     28  H           0.3421   26.2813    8.8885 H         1 MOL1        0.0000
     29  H          -1.0533   25.9544    7.8735 H         1 MOL1        0.0000
     30  H          -2.3846   25.7536   10.0698 H         1 MOL1        0.0000
     31  H          -1.6745   23.7903    8.7850 H         1 MOL1        0.0000
     32  H          -0.0713   23.8531    9.4740 H         1 MOL1        0.0000
     33  H          -2.6489   23.3294   10.9949 H         1 MOL1        0.0000
     34  H          -1.4335   22.1247   10.6147 H         1 MOL1        0.0000
     35  H          -1.2175   22.9242   12.9680 H         1 MOL1        0.0000
     36  H           0.2126   23.3446   12.0504 H         1 MOL1        0.0000
     37  H          -2.1337   25.2025   12.7004 H         1 MOL1        0.0000
     38  H          -0.5350   25.2900   13.3929 H         1 MOL1        0.0000
     39  H           0.4518   25.8639   11.2223 H         1 MOL1        0.0000
     40  H          -0.8463   26.9766   11.5731 H         1 MOL1        0.0000
     41  H           5.2165   24.2329    7.3224 H         1 MOL1        0.0000
     42  H           3.9402   25.3397    9.1502 H         1 MOL1        0.0000
     43  H           2.7083   27.4238    8.7079 H         1 MOL1        0.0000
     44  H          -0.1784   32.8770    6.8845 H         1 MOL1        0.0000
     45  H           3.0167   29.2655    5.6333 H         1 MOL1        0.0000
     46  H           4.0234   27.3389    4.5933 H         1 MOL1        0.0000
     47  H           5.3633   25.6590    3.8281 H         1 MOL1        0.0000
     48  H           6.5286   25.0171    5.0431 H         1 MOL1        0.0000
     49  H           5.1091   23.2899    5.3674 H         1 MOL1        0.0000
@<TRIPOS>BOND
     1      1     14 ar
     2      1     21 ar
     3      1     22 1 
     4      2     18 ar
     5      2     19 ar
     6      3      4 1 
     7      3     16 1 
     8      4      5 1 
     9      4      9 1 
    10      5      6 1 
    11      6      7 1 
    12      7      8 1 
    13      8      9 1 
    14     10     11 ar
    15     10     24 ar
    16     10     25 1 
    17     11     12 ar
    18     12     13 ar
    19     13     23 ar
    20     14     15 ar
    21     15     16 1 
    22     15     17 ar
    23     17     18 ar
    24     17     20 ar
    25     19     20 ar
    26     20     21 ar
    27     22     23 1 
    28     23     24 ar
    29     25     26 1 
    30      2     27 1 
    31      3     28 1 
    32      3     29 1 
    33      4     30 1 
    34      5     31 1 
    35      5     32 1 
    36      6     33 1 
    37      6     34 1 
    38      7     35 1 
    39      7     36 1 
    40      8     37 1 
    41      8     38 1 
    42      9     39 1 
    43      9     40 1 
    44     11     41 1 
    45     12     42 1 
    46     13     43 1 
    47     19     44 1 
    48     22     45 1 
    49     24     46 1 
    50     25     47 1 
    51     25     48 1 
    52     26     49 1 
@<TRIPOS>SUBSTRUCTURE
     1 MOL1         1 MOLECULE 1 A  MOL 
# Molecule written by the XED library from Cresset
