@<TRIPOS>MOLECULE
mk1
    53     56      1
SMALL
USER_CHARGES
@<TRIPOS>ATOM
      1  C           1.4000   29.1263    6.8916 C.ar      1 MOL1        0.0000
      2  C          -1.7595   31.9133    8.0259 C.ar      1 MOL1        0.0000
      3  C          -0.7887   26.3965    8.8484 C.3       1 MOL1        0.0000
      4  C          -1.4624   25.5733    9.9632 C.3       1 MOL1        0.0000
      5  C          -1.1867   24.0787    9.6889 C.3       1 MOL1        0.0000
      6  C          -1.7262   23.1932   10.8299 C.3       1 MOL1        0.0000
      7  C          -1.0771   23.6112   12.1619 C.3       1 MOL1        0.0000
      8  C          -1.4401   25.0766   12.4639 C.3       1 MOL1        0.0000
      9  C          -0.8947   25.9812   11.3430 C.3       1 MOL1        0.0000
     10  C           4.5781   25.6764    5.7811 C.ar      1 MOL1        0.0000
     11  C           4.6300   25.1621    7.0591 C.ar      1 MOL1        0.0000
     12  C           4.0045   25.8108    8.1170 C.ar      1 MOL1        0.0000
     13  C           3.3232   26.9856    7.8513 C.ar      1 MOL1        0.0000
     14  N           0.7114   28.1864    7.6050 N.ar      1 MOL1        0.0000
     15  C          -0.4293   28.6201    8.1766 C.ar      1 MOL1        0.0000
     16  O          -1.1605   27.7889    8.8878 O.3       1 MOL1        0.0000
     17  C          -0.8254   29.9402    8.0279 C.ar      1 MOL1        0.0000
     18  N          -1.8912   30.6816    8.4842 N.ar      1 MOL1        0.0000
     19  N          -0.6471   32.0358    7.2748 N.pl3     1 MOL1        0.0000
     20  C          -0.0662   30.7897    7.2828 C.ar      1 MOL1        0.0000
     21  N           1.0785   30.4200    6.6714 N.ar      1 MOL1        0.0000
     22  N           2.5811   28.7274    6.3167 N.pl3     1 MOL1        0.0000
     23  C           3.2602   27.5082    6.5704 C.ar      1 MOL1        0.0000
     24  C           3.8984   26.8432    5.5364 C.ar      1 MOL1        0.0000
     25  S           5.5433   23.6378    7.3396 S.3       1 MOL1        0.0000
     26  O           5.9807   23.0824    6.0152 O.2       1 MOL1        0.0000
     27  N           4.5208   22.6052    8.0414 N.3       1 MOL1        0.0000
     28  O           4.0809   25.2880    9.3494 O.3       1 MOL1        0.0000
     29  C           3.5897   26.0571   10.4655 C.3       1 MOL1        0.0000
     30  H          -2.4010   32.6577    8.2117 H         1 MOL1        0.0000
     31  H           0.4003   26.2734    8.9602 H         1 MOL1        0.0000
     32  H          -1.1190   25.9576    7.7812 H         1 MOL1        0.0000
     33  H          -2.6482   25.7575    9.9482 H         1 MOL1        0.0000
     34  H          -1.7150   23.7594    8.6596 H         1 MOL1        0.0000
     35  H          -0.0024   23.9105    9.5939 H         1 MOL1        0.0000
     36  H          -2.9155   23.3264   10.9151 H         1 MOL1        0.0000
     37  H          -1.4662   22.0443   10.6009 H         1 MOL1        0.0000
     38  H          -1.4716   22.9048   13.0476 H         1 MOL1        0.0000
     39  H           0.1149   23.5105   12.0651 H         1 MOL1        0.0000
     40  H          -2.6329   25.1878   12.5295 H         1 MOL1        0.0000
     41  H          -0.9441   25.4024   13.5067 H         1 MOL1        0.0000
     42  H           0.2980   25.8668   11.3360 H         1 MOL1        0.0000
     43  H          -1.1830   27.1236   11.5715 H         1 MOL1        0.0000
     44  H           5.0395   25.1998    5.0324 H         1 MOL1        0.0000
     45  H           2.8690   27.4733    8.5964 H         1 MOL1        0.0000
     46  H          -0.3536   32.7597    6.8687 H         1 MOL1        0.0000
     47  H           2.9568   29.2873    5.7504 H         1 MOL1        0.0000
     48  H           3.8665   27.2161    4.6088 H         1 MOL1        0.0000
     49  H           3.6895   22.4904    7.4494 H         1 MOL1        0.0000
     50  H           4.2394   22.9721    8.9585 H         1 MOL1        0.0000
     51  H           3.8013   25.4529   11.4802 H         1 MOL1        0.0000
     52  H           4.1485   27.1185   10.5106 H         1 MOL1        0.0000
     53  H           2.4091   26.2292   10.3510 H         1 MOL1        0.0000
@<TRIPOS>BOND
     1      1     14 ar
     2      1     21 ar
     3      1     22 1 
     4      2     18 ar
     5      2     19 ar
     6      3      4 1 
     7      3     16 1 
     8      4      5 1 
     9      4      9 1 
    10      5      6 1 
    11      6      7 1 
    12      7      8 1 
    13      8      9 1 
    14     10     11 ar
    15     10     24 ar
    16     11     12 ar
    17     11     25 1 
    18     12     13 ar
    19     12     28 1 
    20     13     23 ar
    21     14     15 ar
    22     15     16 1 
    23     15     17 ar
    24     17     18 ar
    25     17     20 ar
    26     19     20 ar
    27     20     21 ar
    28     22     23 1 
    29     23     24 ar
    30     25     26 2 
    31     25     27 1 
    32     28     29 1 
    33      2     30 1 
    34      3     31 1 
    35      3     32 1 
    36      4     33 1 
    37      5     34 1 
    38      5     35 1 
    39      6     36 1 
    40      6     37 1 
    41      7     38 1 
    42      7     39 1 
    43      8     40 1 
    44      8     41 1 
    45      9     42 1 
    46      9     43 1 
    47     10     44 1 
    48     13     45 1 
    49     19     46 1 
    50     22     47 1 
    51     24     48 1 
    52     27     49 1 
    53     27     50 1 
    54     29     51 1 
    55     29     52 1 
    56     29     53 1 
@<TRIPOS>SUBSTRUCTURE
     1 MOL1         1 MOLECULE 1 A  MOL 
# Molecule written by the XED library from Cresset
