@<TRIPOS>MOLECULE
mk2
    50     53      1
SMALL
USER_CHARGES
@<TRIPOS>ATOM
      1  C           1.4106   29.1593    6.8953 C.ar      1 MOL1        0.0000
      2  C          -1.7820   31.9104    8.0280 C.ar      1 MOL1        0.0000
      3  C          -0.7371   26.4005    8.8243 C.3       1 MOL1        0.0000
      4  C          -1.3318   25.5779    9.9817 C.3       1 MOL1        0.0000
      5  C          -1.1149   24.0792    9.6830 C.3       1 MOL1        0.0000
      6  C          -1.6380   23.2136   10.8472 C.3       1 MOL1        0.0000
      7  C          -0.9108   23.5988   12.1496 C.3       1 MOL1        0.0000
      8  C          -1.1737   25.0837   12.4641 C.3       1 MOL1        0.0000
      9  C          -0.6382   25.9545   11.3110 C.3       1 MOL1        0.0000
     10  C           4.6454   25.7258    5.8780 C.ar      1 MOL1        0.0000
     11  C           4.6024   25.1673    7.1378 C.ar      1 MOL1        0.0000
     12  C           3.8923   25.7961    8.1339 C.ar      1 MOL1        0.0000
     13  C           3.2322   26.9723    7.8693 C.ar      1 MOL1        0.0000
     14  N           0.7277   28.2117    7.6022 N.ar      1 MOL1        0.0000
     15  C          -0.4163   28.6317    8.1735 C.ar      1 MOL1        0.0000
     16  O          -1.1324   27.7857    8.8813 O.3       1 MOL1        0.0000
     17  C          -0.8258   29.9477    8.0274 C.ar      1 MOL1        0.0000
     18  N          -1.9007   30.6768    8.4828 N.ar      1 MOL1        0.0000
     19  N          -0.6688   32.0457    7.2810 N.pl3     1 MOL1        0.0000
     20  C          -0.0731   30.8069    7.2861 C.ar      1 MOL1        0.0000
     21  N           1.0781   30.4512    6.6771 N.ar      1 MOL1        0.0000
     22  N           2.5985   28.7641    6.3369 N.pl3     1 MOL1        0.0000
     23  C           3.2677   27.5369    6.6029 C.ar      1 MOL1        0.0000
     24  C           3.9854   26.9029    5.6034 C.ar      1 MOL1        0.0000
     25  S           5.5740   24.9061    4.5793 S.3       1 MOL1        0.0000
     26  O           4.9386   23.5697    4.3266 O.2       1 MOL1        0.0000
     27  C           7.2587   24.6647    5.2067 C.3       1 MOL1        0.0000
     28  H          -2.4323   32.6471    8.2135 H         1 MOL1        0.0000
     29  H           0.4588   26.2992    8.8685 H         1 MOL1        0.0000
     30  H          -1.1181   25.9542    7.7774 H         1 MOL1        0.0000
     31  H          -2.5109   25.7867   10.0686 H         1 MOL1        0.0000
     32  H          -1.6973   23.7812    8.6768 H         1 MOL1        0.0000
     33  H           0.0591   23.8765    9.5384 H         1 MOL1        0.0000
     34  H          -2.8154   23.4010   10.9843 H         1 MOL1        0.0000
     35  H          -1.4410   22.0549   10.6045 H         1 MOL1        0.0000
     36  H          -1.3073   22.9164   13.0534 H         1 MOL1        0.0000
     37  H           0.2684   23.4299   12.0040 H         1 MOL1        0.0000
     38  H          -2.3549   25.2596   12.5810 H         1 MOL1        0.0000
     39  H          -0.6177   25.3848   13.4840 H         1 MOL1        0.0000
     40  H           0.5435   25.7701   11.2108 H         1 MOL1        0.0000
     41  H          -0.8413   27.1118   11.5557 H         1 MOL1        0.0000
     42  H           5.0850   24.3123    7.3268 H         1 MOL1        0.0000
     43  H           3.8564   25.3984    9.0505 H         1 MOL1        0.0000
     44  H           2.7196   27.4258    8.5985 H         1 MOL1        0.0000
     45  H          -0.3833   32.7731    6.8786 H         1 MOL1        0.0000
     46  H           2.9868   29.3290    5.7847 H         1 MOL1        0.0000
     47  H           4.0258   27.2989    4.6863 H         1 MOL1        0.0000
     48  H           7.9159   24.0944    4.3803 H         1 MOL1        0.0000
     49  H           7.7536   25.7318    5.4444 H         1 MOL1        0.0000
     50  H           7.2217   24.0085    6.2107 H         1 MOL1        0.0000
@<TRIPOS>BOND
     1      1     14 ar
     2      1     21 ar
     3      1     22 1 
     4      2     18 ar
     5      2     19 ar
     6      3      4 1 
     7      3     16 1 
     8      4      5 1 
     9      4      9 1 
    10      5      6 1 
    11      6      7 1 
    12      7      8 1 
    13      8      9 1 
    14     10     11 ar
    15     10     24 ar
    16     10     25 1 
    17     11     12 ar
    18     12     13 ar
    19     13     23 ar
    20     14     15 ar
    21     15     16 1 
    22     15     17 ar
    23     17     18 ar
    24     17     20 ar
    25     19     20 ar
    26     20     21 ar
    27     22     23 1 
    28     23     24 ar
    29     25     26 2 
    30     25     27 1 
    31      2     28 1 
    32      3     29 1 
    33      3     30 1 
    34      4     31 1 
    35      5     32 1 
    36      5     33 1 
    37      6     34 1 
    38      6     35 1 
    39      7     36 1 
    40      7     37 1 
    41      8     38 1 
    42      8     39 1 
    43      9     40 1 
    44      9     41 1 
    45     11     42 1 
    46     12     43 1 
    47     13     44 1 
    48     19     45 1 
    49     22     46 1 
    50     24     47 1 
    51     27     48 1 
    52     27     49 1 
    53     27     50 1 
@<TRIPOS>SUBSTRUCTURE
     1 MOL1         1 MOLECULE 1 A  MOL 
