mk1;p38a_3flz_p38a_2f_p38a_2c
  xed2sdf           3D
 
 35 37  0  0  0  0  0  0  0  0999 V2000
   31.6234   38.9530   26.1544 C   0  0  0  0  0  0  0  0  0  0  0  0
   31.0952   38.3551   27.4683 C   0  0  0  0  0  0  0  0  0  0  0  0
   33.0542   38.9788   28.6539 C   0  0  0  0  0  0  0  0  0  0  0  0
   33.6810   39.6144   27.4031 C   0  0  0  0  0  0  0  0  0  0  0  0
   31.6350   39.0631   28.5784 O   0  0  0  0  0  0  0  0  0  0  0  0
   34.5447   34.9770   21.1828 C   0  0  0  0  0  0  0  0  0  0  0  0
   34.0445   38.9756   23.7378 C   0  0  0  0  0  0  0  0  0  0  0  0
   33.1563   38.9294   26.1331 C   0  0  0  0  0  0  0  0  0  0  0  0
   34.8025   37.8107   21.4407 C   0  0  0  0  0  0  0  0  0  0  0  0
   35.2537   37.1253   20.2345 C   0  0  0  0  0  0  0  0  0  0  0  0
   34.3068   37.0366   22.5109 C   0  0  0  0  0  0  0  0  0  0  0  0
   34.8522   39.2088   21.6169 C   0  0  0  0  0  0  0  0  0  0  0  0
   33.6688   34.8316   23.4618 C   0  0  0  0  0  0  0  0  0  0  0  0
   34.4790   39.7926   22.7773 N   0  0  0  0  0  0  0  0  0  0  0  0
   34.3289   33.7760   21.0235 O   0  0  0  0  0  0  0  0  0  0  0  0
   34.2120   35.6181   22.3416 N   0  0  0  0  0  0  0  0  0  0  0  0
   33.9306   37.6499   23.6561 N   0  0  0  0  0  0  0  0  0  0  0  0
   33.6717   39.5652   24.9268 N   0  0  0  0  0  0  0  0  0  0  0  0
   35.1940   35.7470   20.0596 C   0  0  0  0  0  0  0  0  0  0  0  0
   31.2199   38.3998   25.3053 H   0  0  0  0  0  0  0  0  0  0  0  0
   31.2771   39.9808   26.0536 H   0  0  0  0  0  0  0  0  0  0  0  0
   30.0102   38.4340   27.5066 H   0  0  0  0  0  0  0  0  0  0  0  0
   31.3433   37.2955   27.5443 H   0  0  0  0  0  0  0  0  0  0  0  0
   33.3652   37.9383   28.7608 H   0  0  0  0  0  0  0  0  0  0  0  0
   33.3890   39.5054   29.5480 H   0  0  0  0  0  0  0  0  0  0  0  0
   33.4274   40.6742   27.3923 H   0  0  0  0  0  0  0  0  0  0  0  0
   34.7682   39.5451   27.4512 H   0  0  0  0  0  0  0  0  0  0  0  0
   33.4882   37.8910   26.1542 H   0  0  0  0  0  0  0  0  0  0  0  0
   35.7026   37.7357   19.4667 H   0  0  0  0  0  0  0  0  0  0  0  0
   35.2183   39.8564   20.8356 H   0  0  0  0  0  0  0  0  0  0  0  0
   34.0543   35.1876   24.4177 H   0  0  0  0  0  0  0  0  0  0  0  0
   32.5822   34.9190   23.4835 H   0  0  0  0  0  0  0  0  0  0  0  0
   33.9196   33.7705   23.4230 H   0  0  0  0  0  0  0  0  0  0  0  0
   33.7904   40.5685   24.9711 H   0  0  0  0  0  0  0  0  0  0  0  0
   35.5261   35.3041   19.2389 H   0  0  0  0  0  0  0  0  0  0  0  0
  1  2  1  0
  1  8  1  0
  2  5  1  0
  3  4  1  0
  3  5  1  0
  4  8  1  0
  6 15  2  0
  6 16  1  0
  6 19  1  0
  7 14  1  0
  7 17  2  0
  7 18  1  0
  8 18  1  0
  9 10  1  0
  9 11  2  0
  9 12  1  0
 10 19  2  0
 11 16  1  0
 11 17  1  0
 12 14  2  0
 13 16  1  0
  1 20  1  0
  1 21  1  0
  2 22  1  0
  2 23  1  0
  3 24  1  0
  3 25  1  0
  4 26  1  0
  4 27  1  0
  8 28  1  0
 10 29  1  0
 12 30  1  0
 13 31  1  0
 13 32  1  0
 13 33  1  0
 18 34  1  0
 19 35  1  0
M  END
>  <Total Formal Charge>
0.0

>  <Favorite_cresset>
false

>  <MW_cresset>
260.3

>  <#Atoms_cresset>
19

>  <SlogP_cresset>
1

>  <TPSA_cresset>
67.3

>  <Flexibility_cresset>
2.2

>  <Rof5_cresset>
0

>  <Confs_cresset>
0

>  <Poses_cresset>
0

>  <_cresset_fieldpoints2>
 2
    -5      34.336601      41.690632      22.572136     -6.1163
    -5      30.571655      40.070763      29.790003    -10.3649
    -5      35.540344      37.126644      25.069099     -3.7932
    -5      34.542473      32.568130      19.754633    -16.6164
    -5      31.732319      37.429825      23.316067     -3.2708
    -6      33.772682      42.334389      25.710281      9.3557
    -6      32.525169      35.604462      26.284718      4.0796
    -6      35.999107      39.756702      18.954067      6.1124
    -6      36.462086      36.806419      17.721075      4.6143
    -7      28.516605      39.415279      25.410107     -1.0996
    -7      31.146280      37.156204      23.137808     -2.2454
    -7      32.196316      42.353111      25.833309     -1.7367
    -7      35.748985      36.843071      25.617970     -2.3365
    -7      35.090111      41.656105      29.480038     -1.0898
    -7      31.020672      41.546341      28.265030     -2.0154
    -7      31.074711      37.207062      30.482262     -1.2462
    -7      31.881763      36.040619      20.534103     -1.9770
    -7      36.377403      40.407364      25.542643     -1.7430
    -7      33.087830      35.554543      26.835266     -2.2609
    -7      31.753637      35.629063      25.805519     -2.1401
    -7      31.544811      41.076500      23.633900     -1.8125
    -7      37.156044      35.394142      22.540325     -2.0024
    -8      32.626362      38.878441      27.040854      5.4818
    -8      34.926300      36.717125      20.880911      5.0301
    -8      33.332489      34.408607      24.135689      2.5231
    -8      34.914398      37.766144      21.186539      4.8324

$$$$
mk2;p38a_2q_p38a_2u_p38a_2k_mk5
  xed2sdf           3D
 
 57 61  0  0  0  0  0  0  0  0999 V2000
   38.2632   36.7144   17.0135 C   0  0  0  0  0  0  0  0  0  0  0  0
   34.5448   34.9770   21.1829 C   0  0  0  0  0  0  0  0  0  0  0  0
   37.5970   36.1886   18.1373 C   0  0  0  0  0  0  0  0  0  0  0  0
   34.0446   38.9756   23.7379 C   0  0  0  0  0  0  0  0  0  0  0  0
   34.8025   37.8107   21.4407 C   0  0  0  0  0  0  0  0  0  0  0  0
   35.2536   37.1252   20.2345 C   0  0  0  0  0  0  0  0  0  0  0  0
   37.6232   36.7427   15.7594 C   0  0  0  0  0  0  0  0  0  0  0  0
   36.3271   36.2163   15.6228 C   0  0  0  0  0  0  0  0  0  0  0  0
   35.6718   35.6684   16.7395 C   0  0  0  0  0  0  0  0  0  0  0  0
   34.3067   37.0367   22.5108 C   0  0  0  0  0  0  0  0  0  0  0  0
   34.8523   39.2089   21.6168 C   0  0  0  0  0  0  0  0  0  0  0  0
   35.1646   35.7815   20.1252 C   0  0  0  0  0  0  0  0  0  0  0  0
   36.2929   35.6640   18.0028 C   0  0  0  0  0  0  0  0  0  0  0  0
   38.1962   36.1969   19.3281 F   0  0  0  0  0  0  0  0  0  0  0  0
   35.6498   35.0615   19.0536 O   0  0  0  0  0  0  0  0  0  0  0  0
   34.4789   39.7926   22.7772 N   0  0  0  0  0  0  0  0  0  0  0  0
   34.3291   33.7760   21.0235 O   0  0  0  0  0  0  0  0  0  0  0  0
   34.2121   35.6181   22.3415 N   0  0  0  0  0  0  0  0  0  0  0  0
   33.9306   37.6500   23.6559 N   0  0  0  0  0  0  0  0  0  0  0  0
   33.6716   39.5652   24.9268 N   0  0  0  0  0  0  0  0  0  0  0  0
   38.2365   37.2743   14.7019 F   0  0  0  0  0  0  0  0  0  0  0  0
   32.3864   39.3433   28.5029 C   0  0  0  0  0  0  0  0  0  0  0  0
   32.8826   39.9949   27.2021 C   0  0  0  0  0  0  0  0  0  0  0  0
   33.1623   38.9326   26.1270 C   0  0  0  0  0  0  0  0  0  0  0  0
   34.1672   37.8864   26.6356 C   0  0  0  0  0  0  0  0  0  0  0  0
   33.6709   37.2349   27.9364 C   0  0  0  0  0  0  0  0  0  0  0  0
   33.3912   38.2970   29.0116 O   0  0  0  0  0  0  0  0  0  0  0  0
   32.9681   35.0145   25.8880 C   0  0  0  0  0  0  0  0  0  0  0  0
   33.4305   35.8029   24.6520 C   0  0  0  0  0  0  0  0  0  0  0  0
   33.7352   34.8576   23.4789 C   0  0  0  0  0  0  0  0  0  0  0  0
   34.7785   33.8024   23.8799 C   0  0  0  0  0  0  0  0  0  0  0  0
   34.3163   33.0140   25.1157 C   0  0  0  0  0  0  0  0  0  0  0  0
   34.0210   33.9578   26.3095 S   0  0  0  0  0  0  0  0  0  0  0  0
   39.2584   37.1158   17.1165 H   0  0  0  0  0  0  0  0  0  0  0  0
   35.7025   37.7356   19.4667 H   0  0  0  0  0  0  0  0  0  0  0  0
   35.8375   36.2248   14.6602 H   0  0  0  0  0  0  0  0  0  0  0  0
   34.6916   35.2304   16.6227 H   0  0  0  0  0  0  0  0  0  0  0  0
   35.2182   39.8565   20.8356 H   0  0  0  0  0  0  0  0  0  0  0  0
   33.7903   40.5684   24.9712 H   0  0  0  0  0  0  0  0  0  0  0  0
   31.3999   38.8533   28.3203 H   0  0  0  0  0  0  0  0  0  0  0  0
   32.2222   40.1259   29.2834 H   0  0  0  0  0  0  0  0  0  0  0  0
   33.8171   40.5708   27.4078 H   0  0  0  0  0  0  0  0  0  0  0  0
   32.1249   40.7263   26.8283 H   0  0  0  0  0  0  0  0  0  0  0  0
   32.2074   38.4259   25.8476 H   0  0  0  0  0  0  0  0  0  0  0  0
   34.3315   37.1038   25.8552 H   0  0  0  0  0  0  0  0  0  0  0  0
   35.1537   38.3766   26.8182 H   0  0  0  0  0  0  0  0  0  0  0  0
   32.7366   36.6590   27.7308 H   0  0  0  0  0  0  0  0  0  0  0  0
   34.4286   36.5036   28.3103 H   0  0  0  0  0  0  0  0  0  0  0  0
   31.9966   34.5109   25.6656 H   0  0  0  0  0  0  0  0  0  0  0  0
   32.7852   35.7135   26.7403 H   0  0  0  0  0  0  0  0  0  0  0  0
   34.3471   36.3879   24.9059 H   0  0  0  0  0  0  0  0  0  0  0  0
   32.6456   36.5403   24.3542 H   0  0  0  0  0  0  0  0  0  0  0  0
   32.7950   34.3479   23.1587 H   0  0  0  0  0  0  0  0  0  0  0  0
   34.9615   33.1034   23.0274 H   0  0  0  0  0  0  0  0  0  0  0  0
   35.7500   34.3060   24.1024 H   0  0  0  0  0  0  0  0  0  0  0  0
   33.3996   32.4290   24.8620 H   0  0  0  0  0  0  0  0  0  0  0  0
   35.1011   32.2765   25.4136 H   0  0  0  0  0  0  0  0  0  0  0  0
  1  3  2  0
  1  7  1  0
  2 12  1  0
  2 17  2  0
  2 18  1  0
  3 13  1  0
  3 14  1  0
  4 16  1  0
  4 19  2  0
  4 20  1  0
  5  6  1  0
  5 10  2  0
  5 11  1  0
  6 12  2  0
  7  8  2  0
  7 21  1  0
  8  9  1  0
  9 13  2  0
 10 18  1  0
 10 19  1  0
 11 16  2  0
 12 15  1  0
 13 15  1  0
 18 30  1  0
 20 24  1  0
 22 23  1  0
 22 27  1  0
 23 24  1  0
 24 25  1  0
 25 26  1  0
 26 27  1  0
 28 29  1  0
 28 33  1  0
 29 30  1  0
 30 31  1  0
 31 32  1  0
 32 33  1  0
  1 34  1  0
  6 35  1  0
  8 36  1  0
  9 37  1  0
 11 38  1  0
 20 39  1  0
 22 40  1  0
 22 41  1  0
 23 42  1  0
 23 43  1  0
 24 44  1  0
 25 45  1  0
 25 46  1  0
 26 47  1  0
 26 48  1  0
 28 49  1  0
 28 50  1  0
 29 51  1  0
 29 52  1  0
 30 53  1  0
 31 54  1  0
 31 55  1  0
 32 56  1  0
 32 57  1  0
M  END
>  <Total Formal Charge>
0.0

>  <Favorite_cresset>
false

>  <MW_cresset>
474.5

>  <#Atoms_cresset>
33

>  <SlogP_cresset>
4.6

>  <TPSA_cresset>
76.6

>  <Flexibility_cresset>
4.3

>  <Rof5_cresset>
0

>  <Confs_cresset>
0

>  <Poses_cresset>
0

>  <_cresset_fieldpoints2>
 2
    -5      38.089565      37.703728      11.925482     -1.4829
    -5      31.435333      38.314980      23.009350     -2.5626
    -5      34.992153      33.103004      19.466448    -19.0774
    -5      34.598473      41.699242      22.653278     -6.2525
    -5      36.633652      37.964699      24.486851     -2.6912
    -5      34.274364      38.354225      30.646601    -11.1204
    -5      40.517097      38.369095      13.417089     -1.4304
    -5      34.979885      33.330135      28.861179     -2.4704
    -6      40.684174      38.443130      17.592300      2.6750
    -6      36.102798      39.686623      18.944160      6.6597
    -6      33.661957      35.475071      14.520386      3.5193
    -6      30.579422      34.781071      23.871422      3.1655
    -6      33.689568      42.371750      25.606014      9.6410
    -6      37.222042      35.850433      22.944677      1.1723
    -6      36.664848      36.188560      25.425060      1.7024
    -6      30.687710      36.938133      26.667137      4.9156
    -6      31.090710      33.150848      24.099859      3.1467
    -6      34.018456      30.026775      24.984995      1.1455
    -6      37.426949      32.321091      24.729294      1.0563
    -7      30.927750      38.089188      23.534702     -2.2530
    -7      37.245232      35.541245      22.385265     -3.1944
    -7      33.348572      35.307838      14.275956     -1.0015
    -7      32.973099      36.890450      18.407309     -2.2888
    -7      35.816948      39.183334      17.486158     -2.5937
    -7      36.743179      36.683563      24.729567     -3.2727
    -7      33.607246      33.663795      18.632162     -2.1672
    -7      36.151260      40.584335      25.949074     -2.1346
    -7      31.094925      40.528511      24.268280     -1.8617
    -7      33.007607      41.946960      22.875126     -1.3297
    -7      32.810867      32.086617      21.882874     -2.0281
    -7      31.694397      35.806824      21.034052     -2.2932
    -7      33.657600      42.905182      25.971859     -1.2202
    -7      38.313972      33.347633      16.255419     -1.8971
    -7      32.696838      42.790253      28.819118     -1.0863
    -7      35.601479      39.578018      29.202227     -2.0302
    -7      30.401524      35.449692      23.582985     -1.8626
    -7      36.608894      35.879417      25.956345     -3.2564
    -7      32.430428      34.416191      29.124222     -1.8254
    -7      30.422031      36.902084      26.612438     -2.7328
    -7      31.002193      32.793266      24.069365     -1.9942
    -7      31.261278      32.102745      26.341225     -1.6178
    -8      36.984192      36.219818      16.859518      6.8760
    -8      34.907871      36.813545      20.976158      5.0163
    -8      33.860229      34.366760      24.997982      7.5737
    -8      34.914383      37.738258      21.188034      4.8786
    -8      33.189926      38.647675      27.116745      5.4064

$$$$
mk3;p38a_2v_p38a_3fln_p38a_3fly_p38a_2j_p38a_2x_mk4
  xed2sdf           3D
 
 32 34  0  0  0  0  0  0  0  0999 V2000
   38.2632   36.7145   17.0133 C   0  0  0  0  0  0  0  0  0  0  0  0
   34.5449   34.9770   21.1828 C   0  0  0  0  0  0  0  0  0  0  0  0
   37.5969   36.1885   18.1373 C   0  0  0  0  0  0  0  0  0  0  0  0
   34.0444   38.9756   23.7378 C   0  0  0  0  0  0  0  0  0  0  0  0
   34.8025   37.8108   21.4406 C   0  0  0  0  0  0  0  0  0  0  0  0
   35.2535   37.1252   20.2343 C   0  0  0  0  0  0  0  0  0  0  0  0
   37.6232   36.7427   15.7593 C   0  0  0  0  0  0  0  0  0  0  0  0
   36.3272   36.2163   15.6228 C   0  0  0  0  0  0  0  0  0  0  0  0
   35.6719   35.6684   16.7395 C   0  0  0  0  0  0  0  0  0  0  0  0
   34.3067   37.0366   22.5110 C   0  0  0  0  0  0  0  0  0  0  0  0
   34.8523   39.2088   21.6169 C   0  0  0  0  0  0  0  0  0  0  0  0
   35.1647   35.7815   20.1252 C   0  0  0  0  0  0  0  0  0  0  0  0
   36.2929   35.6639   18.0028 C   0  0  0  0  0  0  0  0  0  0  0  0
   33.6690   34.8315   23.4618 C   0  0  0  0  0  0  0  0  0  0  0  0
   38.2058   36.1970   19.3473 F   0  0  0  0  0  0  0  0  0  0  0  0
   38.2455   37.2821   14.6864 F   0  0  0  0  0  0  0  0  0  0  0  0
   35.6497   35.0616   19.0536 O   0  0  0  0  0  0  0  0  0  0  0  0
   34.4788   39.7925   22.7773 N   0  0  0  0  0  0  0  0  0  0  0  0
   34.3290   33.7761   21.0234 O   0  0  0  0  0  0  0  0  0  0  0  0
   34.2121   35.6182   22.3415 N   0  0  0  0  0  0  0  0  0  0  0  0
   33.9306   37.6499   23.6560 N   0  0  0  0  0  0  0  0  0  0  0  0
   33.6717   39.5652   24.9268 N   0  0  0  0  0  0  0  0  0  0  0  0
   39.2584   37.1157   17.1164 H   0  0  0  0  0  0  0  0  0  0  0  0
   35.7024   37.7355   19.4668 H   0  0  0  0  0  0  0  0  0  0  0  0
   35.8385   36.2249   14.6624 H   0  0  0  0  0  0  0  0  0  0  0  0
   34.6957   35.2322   16.6234 H   0  0  0  0  0  0  0  0  0  0  0  0
   35.2183   39.8565   20.8355 H   0  0  0  0  0  0  0  0  0  0  0  0
   34.0544   35.1877   24.4176 H   0  0  0  0  0  0  0  0  0  0  0  0
   32.5821   34.9189   23.4834 H   0  0  0  0  0  0  0  0  0  0  0  0
   33.9197   33.7706   23.4230 H   0  0  0  0  0  0  0  0  0  0  0  0
   33.7903   40.5685   24.9711 H   0  0  0  0  0  0  0  0  0  0  0  0
   33.1806   39.1349   25.5168 H   0  0  0  0  0  0  0  0  0  0  0  0
  1  3  2  0
  1  7  1  0
  2 12  1  0
  2 19  2  0
  2 20  1  0
  3 13  1  0
  3 15  1  0
  4 18  1  0
  4 21  2  0
  4 22  1  0
  5  6  1  0
  5 10  2  0
  5 11  1  0
  6 12  2  0
  7  8  2  0
  7 16  1  0
  8  9  1  0
  9 13  2  0
 10 20  1  0
 10 21  1  0
 11 18  2  0
 12 17  1  0
 13 17  1  0
 14 20  1  0
  1 23  1  0
  6 24  1  0
  8 25  1  0
  9 26  1  0
 11 27  1  0
 14 28  1  0
 14 29  1  0
 14 30  1  0
 22 31  1  0
 22 32  1  0
M  END
>  <Total Formal Charge>
0.0

>  <Favorite_cresset>
false

>  <MW_cresset>
304.3

>  <#Atoms_cresset>
22

>  <SlogP_cresset>
2.3

>  <TPSA_cresset>
81.3

>  <Flexibility_cresset>
1

>  <Rof5_cresset>
0

>  <Confs_cresset>
0

>  <Poses_cresset>
0

>  <_cresset_fieldpoints2>
 2
    -5      34.995369      33.100739      19.474640    -19.4977
    -5      31.993587      37.314735      23.961044     -3.9590
    -5      35.164223      37.164177      25.226265     -5.0272
    -5      34.256222      41.684834      22.591555     -7.6446
    -5      38.045753      37.731590      11.920980     -1.5322
    -5      40.556919      38.389648      13.480001     -1.4795
    -5      35.720078      38.902054      25.730721     -4.0722
    -6      40.727776      38.401840      17.560249      2.6034
    -6      36.096836      39.685230      18.929180      6.3654
    -6      33.671684      35.472504      14.508429      3.4391
    -6      32.411880      34.100372      25.895317      2.5812
    -6      32.856041      40.922325      26.623863      8.4739
    -7      37.215874      35.435959      22.398678     -2.4986
    -7      38.310730      33.345772      16.256582     -1.8924
    -7      33.346481      35.323792      14.277948     -1.0005
    -7      36.788990      33.231239      20.277863     -2.2532
    -7      34.861000      42.227325      23.173492     -1.1867
    -7      36.034225      36.720360      25.291729     -1.5454
    -7      33.575157      33.702866      18.618954     -2.1309
    -7      31.725857      36.985085      24.975227     -1.7291
    -7      35.820847      39.183903      17.486652     -2.5888
    -7      32.991493      36.938225      18.386009     -2.2786
    -7      34.144188      42.267845      22.934956     -1.1874
    -7      35.669312      39.243683      26.686192     -0.9801
    -7      34.619881      36.931572      26.192383     -1.5640
    -7      31.478491      41.014557      23.683212     -0.9751
    -8      36.981941      36.221169      16.858875      6.8693
    -8      34.907967      36.822182      20.961468      4.9892
    -8      33.341774      34.387291      24.128498      2.5124
    -8      34.917713      37.747917      21.179516      4.8571

$$$$
mk4;p38a_2bb_p38a_3fmh_p38a_2v_p38a_3fly_p38a_3flq_p38a_3fmk_p38a_2y_mk3
  xed2sdf           3D
 
 38 40  0  0  0  0  0  0  0  0999 V2000
   38.2631   36.7144   17.0134 C   0  0  0  0  0  0  0  0  0  0  0  0
   34.5448   34.9771   21.1828 C   0  0  0  0  0  0  0  0  0  0  0  0
   37.5970   36.1886   18.1373 C   0  0  0  0  0  0  0  0  0  0  0  0
   34.0445   38.9755   23.7379 C   0  0  0  0  0  0  0  0  0  0  0  0
   33.1562   38.9294   26.1332 C   0  0  0  0  0  0  0  0  0  0  0  0
   34.8026   37.8109   21.4408 C   0  0  0  0  0  0  0  0  0  0  0  0
   35.2537   37.1251   20.2345 C   0  0  0  0  0  0  0  0  0  0  0  0
   37.6231   36.7427   15.7595 C   0  0  0  0  0  0  0  0  0  0  0  0
   36.3272   36.2163   15.6227 C   0  0  0  0  0  0  0  0  0  0  0  0
   35.6719   35.6684   16.7395 C   0  0  0  0  0  0  0  0  0  0  0  0
   34.3067   37.0366   22.5110 C   0  0  0  0  0  0  0  0  0  0  0  0
   34.8521   39.2088   21.6170 C   0  0  0  0  0  0  0  0  0  0  0  0
   35.1646   35.7815   20.1252 C   0  0  0  0  0  0  0  0  0  0  0  0
   36.2932   35.6639   18.0028 C   0  0  0  0  0  0  0  0  0  0  0  0
   33.6690   34.8315   23.4618 C   0  0  0  0  0  0  0  0  0  0  0  0
   38.1961   36.1969   19.3280 F   0  0  0  0  0  0  0  0  0  0  0  0
   35.6497   35.0616   19.0536 O   0  0  0  0  0  0  0  0  0  0  0  0
   34.4790   39.7925   22.7773 N   0  0  0  0  0  0  0  0  0  0  0  0
   34.3290   33.7760   21.0235 O   0  0  0  0  0  0  0  0  0  0  0  0
   34.2121   35.6181   22.3416 N   0  0  0  0  0  0  0  0  0  0  0  0
   33.9306   37.6499   23.6560 N   0  0  0  0  0  0  0  0  0  0  0  0
   33.6717   39.5651   24.9269 N   0  0  0  0  0  0  0  0  0  0  0  0
   38.2365   37.2743   14.7019 F   0  0  0  0  0  0  0  0  0  0  0  0
   33.6752   39.6520   27.3410 C   0  0  0  0  0  0  0  0  0  0  0  0
   39.2586   37.1158   17.1165 H   0  0  0  0  0  0  0  0  0  0  0  0
   33.4882   37.8910   26.1541 H   0  0  0  0  0  0  0  0  0  0  0  0
   35.7026   37.7356   19.4668 H   0  0  0  0  0  0  0  0  0  0  0  0
   35.8375   36.2250   14.6602 H   0  0  0  0  0  0  0  0  0  0  0  0
   34.6916   35.2304   16.6227 H   0  0  0  0  0  0  0  0  0  0  0  0
   35.2184   39.8565   20.8356 H   0  0  0  0  0  0  0  0  0  0  0  0
   34.0543   35.1876   24.4177 H   0  0  0  0  0  0  0  0  0  0  0  0
   32.5822   34.9187   23.4834 H   0  0  0  0  0  0  0  0  0  0  0  0
   33.9197   33.7704   23.4230 H   0  0  0  0  0  0  0  0  0  0  0  0
   33.7904   40.5685   24.9712 H   0  0  0  0  0  0  0  0  0  0  0  0
   32.0668   38.9678   26.1277 H   0  0  0  0  0  0  0  0  0  0  0  0
   34.7645   39.6137   27.3476 H   0  0  0  0  0  0  0  0  0  0  0  0
   33.3490   40.6915   27.3110 H   0  0  0  0  0  0  0  0  0  0  0  0
   33.2505   39.1280   28.3336 H   0  0  0  0  0  0  0  0  0  0  0  0
  1  3  2  0
  1  8  1  0
  2 13  1  0
  2 19  2  0
  2 20  1  0
  3 14  1  0
  3 16  1  0
  4 18  1  0
  4 21  2  0
  4 22  1  0
  5 22  1  0
  5 24  1  0
  6  7  1  0
  6 11  2  0
  6 12  1  0
  7 13  2  0
  8  9  2  0
  8 23  1  0
  9 10  1  0
 10 14  2  0
 11 20  1  0
 11 21  1  0
 12 18  2  0
 13 17  1  0
 14 17  1  0
 15 20  1  0
  1 25  1  0
  5 26  1  0
  5 35  1  0
  7 27  1  0
  9 28  1  0
 10 29  1  0
 12 30  1  0
 15 31  1  0
 15 32  1  0
 15 33  1  0
 22 34  1  0
 24 36  1  0
 24 37  1  0
 24 38  1  0
M  END
>  <Total Formal Charge>
0.0

>  <Favorite_cresset>
false

>  <MW_cresset>
332.3

>  <#Atoms_cresset>
24

>  <SlogP_cresset>
3.1

>  <TPSA_cresset>
67.3

>  <Flexibility_cresset>
2.3

>  <Rof5_cresset>
0

>  <Confs_cresset>
0

>  <Poses_cresset>
0

>  <_cresset_fieldpoints2>
 2
    -5      40.530739      38.373680      13.453032     -1.4584
    -5      35.515919      37.164795      25.091110     -4.7036
    -5      34.996483      33.100601      19.474525    -19.4907
    -5      32.007484      37.323776      24.031757     -5.4563
    -5      38.078148      37.719376      11.927980     -1.5121
    -5      34.468857      41.700272      22.617893     -6.7154
    -6      36.101143      39.686447      18.938805      6.4861
    -6      33.669197      35.474976      14.507441      3.4488
    -6      32.531342      34.063633      25.946163      2.5124
    -6      40.707733      38.424667      17.571022      2.6203
    -6      33.746353      42.375076      25.603062      8.5863
    -7      31.305676      37.123268      24.143597     -2.1237
    -7      33.381195      35.222885      14.256023     -1.0014
    -7      36.789619      33.231514      20.278065     -2.2534
    -7      36.408287      40.462803      25.438080     -1.6336
    -7      38.314690      33.347790      16.254959     -1.8969
    -7      31.394814      41.422531      25.063852     -1.4248
    -7      35.822372      39.185654      17.487335     -2.5932
    -7      33.580185      33.696350      18.617786     -2.1317
    -7      33.816605      42.216499      22.923214     -1.2809
    -7      32.994576      36.944305      18.384558     -2.2798
    -7      37.222454      35.449471      22.387196     -2.5067
    -7      35.805481      36.839020      25.547478     -2.1702
    -7      31.273006      40.917198      24.323349     -1.4527
    -8      36.984985      36.220772      16.862238      6.8756
    -8      34.908623      36.819962      20.965996      4.9910
    -8      33.339485      34.405884      24.131058      2.5183
    -8      33.316551      39.187126      27.096910      4.1686
    -8      34.914688      37.749077      21.182703      4.8595

$$$$
mk5;p38a_2k_mk2
  xed2sdf           3D
 
 59 63  0  0  0  0  0  0  0  0999 V2000
   38.2632   36.7145   17.0136 C   0  0  0  0  0  0  0  0  0  0  0  0
   34.5448   34.9770   21.1830 C   0  0  0  0  0  0  0  0  0  0  0  0
   37.5971   36.1886   18.1373 C   0  0  0  0  0  0  0  0  0  0  0  0
   34.0446   38.9757   23.7380 C   0  0  0  0  0  0  0  0  0  0  0  0
   34.8024   37.8106   21.4406 C   0  0  0  0  0  0  0  0  0  0  0  0
   35.2536   37.1253   20.2345 C   0  0  0  0  0  0  0  0  0  0  0  0
   37.6232   36.7427   15.7594 C   0  0  0  0  0  0  0  0  0  0  0  0
   36.3271   36.2163   15.6229 C   0  0  0  0  0  0  0  0  0  0  0  0
   35.6717   35.6683   16.7394 C   0  0  0  0  0  0  0  0  0  0  0  0
   34.3067   37.0367   22.5108 C   0  0  0  0  0  0  0  0  0  0  0  0
   34.8524   39.2090   21.6167 C   0  0  0  0  0  0  0  0  0  0  0  0
   35.1646   35.7815   20.1252 C   0  0  0  0  0  0  0  0  0  0  0  0
   36.2928   35.6640   18.0028 C   0  0  0  0  0  0  0  0  0  0  0  0
   38.1963   36.1968   19.3281 F   0  0  0  0  0  0  0  0  0  0  0  0
   35.6498   35.0615   19.0536 O   0  0  0  0  0  0  0  0  0  0  0  0
   34.4789   39.7926   22.7772 N   0  0  0  0  0  0  0  0  0  0  0  0
   34.3290   33.7761   21.0235 O   0  0  0  0  0  0  0  0  0  0  0  0
   34.2121   35.6181   22.3416 N   0  0  0  0  0  0  0  0  0  0  0  0
   33.9307   37.6500   23.6559 N   0  0  0  0  0  0  0  0  0  0  0  0
   33.6716   39.5652   24.9268 N   0  0  0  0  0  0  0  0  0  0  0  0
   38.2365   37.2743   14.7020 F   0  0  0  0  0  0  0  0  0  0  0  0
   32.3863   39.3432   28.5029 C   0  0  0  0  0  0  0  0  0  0  0  0
   32.8826   39.9949   27.2021 C   0  0  0  0  0  0  0  0  0  0  0  0
   33.1622   38.9326   26.1270 C   0  0  0  0  0  0  0  0  0  0  0  0
   34.1673   37.8864   26.6355 C   0  0  0  0  0  0  0  0  0  0  0  0
   33.6709   37.2349   27.9364 C   0  0  0  0  0  0  0  0  0  0  0  0
   33.3913   38.2970   29.0115 O   0  0  0  0  0  0  0  0  0  0  0  0
   32.9681   35.0145   25.8880 C   0  0  0  0  0  0  0  0  0  0  0  0
   33.4305   35.8029   24.6520 C   0  0  0  0  0  0  0  0  0  0  0  0
   33.7353   34.8577   23.4789 C   0  0  0  0  0  0  0  0  0  0  0  0
   34.7785   33.8024   23.8799 C   0  0  0  0  0  0  0  0  0  0  0  0
   34.3162   33.0140   25.1157 C   0  0  0  0  0  0  0  0  0  0  0  0
   34.0210   33.9579   26.3096 C   0  0  0  0  0  0  0  0  0  0  0  0
   39.2584   37.1158   17.1165 H   0  0  0  0  0  0  0  0  0  0  0  0
   35.7026   37.7356   19.4667 H   0  0  0  0  0  0  0  0  0  0  0  0
   35.8375   36.2248   14.6602 H   0  0  0  0  0  0  0  0  0  0  0  0
   34.6916   35.2304   16.6227 H   0  0  0  0  0  0  0  0  0  0  0  0
   35.2182   39.8565   20.8357 H   0  0  0  0  0  0  0  0  0  0  0  0
   33.7902   40.5684   24.9712 H   0  0  0  0  0  0  0  0  0  0  0  0
   31.3999   38.8533   28.3202 H   0  0  0  0  0  0  0  0  0  0  0  0
   32.2222   40.1258   29.2834 H   0  0  0  0  0  0  0  0  0  0  0  0
   33.8171   40.5707   27.4078 H   0  0  0  0  0  0  0  0  0  0  0  0
   32.1249   40.7263   26.8284 H   0  0  0  0  0  0  0  0  0  0  0  0
   32.2074   38.4258   25.8477 H   0  0  0  0  0  0  0  0  0  0  0  0
   34.3315   37.1038   25.8552 H   0  0  0  0  0  0  0  0  0  0  0  0
   35.1537   38.3765   26.8181 H   0  0  0  0  0  0  0  0  0  0  0  0
   32.7366   36.6590   27.7308 H   0  0  0  0  0  0  0  0  0  0  0  0
   34.4285   36.5036   28.3103 H   0  0  0  0  0  0  0  0  0  0  0  0
   31.9966   34.5108   25.6656 H   0  0  0  0  0  0  0  0  0  0  0  0
   32.7851   35.7135   26.7403 H   0  0  0  0  0  0  0  0  0  0  0  0
   34.3471   36.3880   24.9058 H   0  0  0  0  0  0  0  0  0  0  0  0
   32.6457   36.5403   24.3541 H   0  0  0  0  0  0  0  0  0  0  0  0
   32.7950   34.3479   23.1587 H   0  0  0  0  0  0  0  0  0  0  0  0
   34.9616   33.1033   23.0273 H   0  0  0  0  0  0  0  0  0  0  0  0
   35.7500   34.3060   24.1024 H   0  0  0  0  0  0  0  0  0  0  0  0
   33.3996   32.4290   24.8620 H   0  0  0  0  0  0  0  0  0  0  0  0
   35.1011   32.2765   25.4136 H   0  0  0  0  0  0  0  0  0  0  0  0
   35.0332   34.5152   26.6328 H   0  0  0  0  0  0  0  0  0  0  0  0
   33.6021   33.3185   27.2344 H   0  0  0  0  0  0  0  0  0  0  0  0
  1  3  2  0
  1  7  1  0
  2 12  1  0
  2 17  2  0
  2 18  1  0
  3 13  1  0
  3 14  1  0
  4 16  1  0
  4 19  2  0
  4 20  1  0
  5  6  1  0
  5 10  2  0
  5 11  1  0
  6 12  2  0
  7  8  2  0
  7 21  1  0
  8  9  1  0
  9 13  2  0
 10 18  1  0
 10 19  1  0
 11 16  2  0
 12 15  1  0
 13 15  1  0
 18 30  1  0
 20 24  1  0
 22 23  1  0
 22 27  1  0
 23 24  1  0
 24 25  1  0
 25 26  1  0
 26 27  1  0
 28 29  1  0
 28 33  1  0
 29 30  1  0
 30 31  1  0
 31 32  1  0
 32 33  1  0
  1 34  1  0
  6 35  1  0
  8 36  1  0
  9 37  1  0
 11 38  1  0
 20 39  1  0
 22 40  1  0
 22 41  1  0
 23 42  1  0
 23 43  1  0
 24 44  1  0
 25 45  1  0
 25 46  1  0
 26 47  1  0
 26 48  1  0
 28 49  1  0
 28 50  1  0
 29 51  1  0
 29 52  1  0
 30 53  1  0
 31 54  1  0
 31 55  1  0
 32 56  1  0
 32 57  1  0
 33 58  1  0
 33 59  1  0
M  END
>  <Total Formal Charge>
0.0

>  <Favorite_cresset>
false

>  <MW_cresset>
456.5

>  <#Atoms_cresset>
33

>  <SlogP_cresset>
5

>  <TPSA_cresset>
76.6

>  <Flexibility_cresset>
4.3

>  <Rof5_cresset>
0

>  <Confs_cresset>
0

>  <Poses_cresset>
0

$$$$
